
     RDKit          3D

 87 94  0  0  0  0  0  0  0  0999 V2000
   -7.8176   -9.4320   22.9252 C   0  0  1  0  0  0  0  0  0  0  0  0
   -8.1259  -10.5928   23.8001 C   0  0  0  0  0  0  0  0  0  0  0  0
   -9.8170   -5.1421   21.8923 C   0  0  0  0  0  0  0  0  0  0  0  0
   -8.2524   -8.1354   23.5173 C   0  0  0  0  0  0  0  0  0  0  0  0
   -8.7563   -7.0744   22.8999 C   0  0  0  0  0  0  0  0  0  0  0  0
   -9.1590   -6.4735   21.5401 C   0  0  0  0  0  0  0  0  0  0  0  0
   -8.7999   -3.5782   23.7886 C   0  0  0  0  0  0  0  0  0  0  0  0
   -3.5059  -10.8546   21.2766 C   0  0  0  0  0  0  0  0  0  0  0  0
   -7.3391  -11.0152   24.6541 O   0  0  0  0  0  0  0  0  0  0  0  0
   -3.9062  -12.0510   20.4024 C   0  0  0  0  0  0  0  0  0  0  0  0
   -9.7947  -12.1902   24.4206 C   0  0  0  0  0  0  0  0  0  0  0  0
    7.7790  -12.8583   17.3428 C   0  0  1  0  0  0  0  0  0  0  0  0
  -11.2602  -13.7316   25.1050 C   0  0  0  0  0  0  0  0  0  0  0  0
   -4.4972  -10.1863   21.9501 C   0  0  0  0  0  0  0  0  0  0  0  0
   -4.2126   -9.0671   22.7881 C   0  0  0  0  0  0  0  0  0  0  0  0
   -5.4399   -8.6020   23.2468 C   0  0  0  0  0  0  0  0  0  0  0  0
   -2.8475   -8.6351   22.9728 C   0  0  0  0  0  0  0  0  0  0  0  0
    0.8753  -12.4855   19.6957 C   0  0  0  0  0  0  0  0  0  0  0  0
    0.5057  -13.5778   18.9516 C   0  0  0  0  0  0  0  0  0  0  0  0
    1.5290  -14.2898   18.2456 C   0  0  0  0  0  0  0  0  0  0  0  0
   -9.4658   -4.8826   23.3480 C   0  0  2  0  0  0  0  0  0  0  0  0
   -8.9857   -6.1056   23.8547 N   0  0  0  0  0  0  0  0  0  0  0  0
   -8.5973   -6.6365   25.0175 C   0  0  0  0  0  0  0  0  0  0  0  0
   -8.1551   -7.8773   24.8629 N   0  0  0  0  0  0  0  0  0  0  0  0
  -10.2543   -3.9054   24.2242 C   0  0  0  0  0  0  0  0  0  0  0  0
   -6.3576   -9.4120   22.6706 N   0  0  0  0  0  0  0  0  0  0  0  0
   -2.2066  -10.4545   21.5012 C   0  0  0  0  0  0  0  0  0  0  0  0
   -1.8935   -9.3805   22.3121 C   0  0  0  0  0  0  0  0  0  0  0  0
   -2.4642   -7.5671   23.8992 C   0  0  1  0  0  0  0  0  0  0  0  0
   -1.1254   -7.7047   24.2551 F   0  0  0  0  0  0  0  0  0  0  0  0
   -2.4693   -6.3514   23.2844 F   0  0  0  0  0  0  0  0  0  0  0  0
   -1.0862  -11.1627   20.8675 C   0  0  0  0  0  0  0  0  0  0  0  0
   -0.1979  -11.7507   20.3658 C   0  0  0  0  0  0  0  0  0  0  0  0
    2.7929  -13.7937   18.2915 C   0  0  0  0  0  0  0  0  0  0  0  0
    3.1636  -12.6564   19.0086 C   0  0  0  0  0  0  0  0  0  0  0  0
    2.1575  -11.9704   19.7132 C   0  0  0  0  0  0  0  0  0  0  0  0
    3.8800  -14.5971   17.5499 C   0  0  0  0  0  0  0  0  0  0  0  0
   -5.8313  -10.3952   21.9005 N   0  0  0  0  0  0  0  0  0  0  0  0
   -9.3459  -11.1685   23.6414 N   0  0  0  0  0  0  0  0  0  0  0  0
   -8.8995  -12.9901   25.6422 S   0  0  0  0  0  0  0  0  0  0  0  0
  -10.2507  -14.0553   25.9389 C   0  0  0  0  0  0  0  0  0  0  0  0
  -10.9849  -12.6838   24.2456 N   0  0  0  0  0  0  0  0  0  0  0  0
    5.4621  -13.1125   16.3581 C   0  0  0  0  0  0  0  0  0  0  0  0
    6.6180  -12.1376   16.6386 C   0  0  0  0  0  0  0  0  0  0  0  0
    7.3180  -13.5406   18.6450 C   0  0  0  0  0  0  0  0  0  0  0  0
    6.2121  -14.5376   18.2775 C   0  0  0  0  0  0  0  0  0  0  0  0
    5.1175  -13.7967   17.6206 N   0  0  2  0  0  0  0  0  0  0  0  0
    8.3498  -13.9091   16.3884 C   0  0  0  0  0  0  0  0  0  0  0  0
    8.9504  -13.2292   15.2928 O   0  0  0  0  0  0  0  0  0  0  0  0
   -8.3779   -9.5501   21.9859 H   0  0  0  0  0  0  0  0  0  0  0  0
   -9.4224   -4.3383   21.2533 H   0  0  0  0  0  0  0  0  0  0  0  0
  -10.9055   -5.1732   21.7365 H   0  0  0  0  0  0  0  0  0  0  0  0
   -9.8689   -7.1324   21.0185 H   0  0  0  0  0  0  0  0  0  0  0  0
   -8.2991   -6.3503   20.8653 H   0  0  0  0  0  0  0  0  0  0  0  0
   -7.9855   -3.5973   24.5279 H   0  0  0  0  0  0  0  0  0  0  0  0
   -8.3097   -2.7392   23.2730 H   0  0  0  0  0  0  0  0  0  0  0  0
   -4.1892  -12.8970   21.0460 H   0  0  0  0  0  0  0  0  0  0  0  0
   -4.7599  -11.7718   19.7673 H   0  0  0  0  0  0  0  0  0  0  0  0
   -3.0564  -12.3417   19.7673 H   0  0  0  0  0  0  0  0  0  0  0  0
    8.5452  -12.1152   17.6089 H   0  0  0  0  0  0  0  0  0  0  0  0
  -12.2255  -14.2590   25.1083 H   0  0  0  0  0  0  0  0  0  0  0  0
   -5.6245   -7.7594   23.9293 H   0  0  0  0  0  0  0  0  0  0  0  0
   -0.5455  -13.8973   18.8987 H   0  0  0  0  0  0  0  0  0  0  0  0
    1.2989  -15.2078   17.6850 H   0  0  0  0  0  0  0  0  0  0  0  0
   -8.6390   -6.1102   25.9825 H   0  0  0  0  0  0  0  0  0  0  0  0
  -10.4726   -4.1573   25.2725 H   0  0  0  0  0  0  0  0  0  0  0  0
  -11.2262   -3.3961   24.1464 H   0  0  0  0  0  0  0  0  0  0  0  0
   -0.8352   -9.1076   22.4364 H   0  0  0  0  0  0  0  0  0  0  0  0
   -3.1708   -7.6324   24.7397 H   0  0  0  0  0  0  0  0  0  0  0  0
    4.2068  -12.3076   19.0227 H   0  0  0  0  0  0  0  0  0  0  0  0
    2.3860  -11.0464   20.2646 H   0  0  0  0  0  0  0  0  0  0  0  0
    4.0301  -15.5720   18.0368 H   0  0  0  0  0  0  0  0  0  0  0  0
    3.5898  -14.7876   16.5061 H   0  0  0  0  0  0  0  0  0  0  0  0
   -9.9614  -10.8147   22.8951 H   0  0  0  0  0  0  0  0  0  0  0  0
  -10.2748  -14.8618   26.6865 H   0  0  0  0  0  0  0  0  0  0  0  0
    4.5889  -12.5570   15.9854 H   0  0  0  0  0  0  0  0  0  0  0  0
    5.7623  -13.8482   15.5974 H   0  0  0  0  0  0  0  0  0  0  0  0
    6.2550  -11.3232   17.2827 H   0  0  0  0  0  0  0  0  0  0  0  0
    6.9807  -11.7350   15.6813 H   0  0  0  0  0  0  0  0  0  0  0  0
    8.1620  -14.0708   19.1102 H   0  0  0  0  0  0  0  0  0  0  0  0
    6.9439  -12.7944   19.3615 H   0  0  0  0  0  0  0  0  0  0  0  0
    6.6109  -15.2982   17.5901 H   0  0  0  0  0  0  0  0  0  0  0  0
    5.8394  -15.0396   19.1825 H   0  0  0  0  0  0  0  0  0  0  0  0
    4.9308  -13.0011   18.2476 H   0  0  0  0  0  0  0  0  0  0  0  0
    9.1045  -14.5160   16.9099 H   0  0  0  0  0  0  0  0  0  0  0  0
    7.5504  -14.5755   16.0322 H   0  0  0  0  0  0  0  0  0  0  0  0
    9.5658  -12.5327   15.6339 H   0  0  0  0  0  0  0  0  0  0  0  0
  1  2  1  0
  1  4  1  0
  1 26  1  0
  2  9  2  0
  2 39  1  0
  3  6  1  0
 21  3  1  6
  4  5  2  0
  4 24  1  0
  5  6  1  0
  5 22  1  0
  7 21  1  0
  7 25  1  0
  8 10  1  0
  8 14  1  0
  8 27  2  0
 11 39  1  0
 11 40  1  0
 11 42  2  0
 12 44  1  0
 12 45  1  0
 12 48  1  0
 13 41  2  0
 13 42  1  0
 14 15  1  0
 14 38  2  0
 15 16  2  0
 15 17  1  0
 16 26  1  0
 17 28  2  0
 17 29  1  0
 18 19  2  0
 18 33  1  0
 18 36  1  0
 19 20  1  0
 20 34  2  0
 21 22  1  0
 21 25  1  0
 22 23  1  0
 23 24  2  0
 26 38  1  0
 27 28  1  0
 27 32  1  0
 29 30  1  0
 29 31  1  0
 32 33  3  0
 34 35  1  0
 34 37  1  0
 35 36  2  0
 47 37  1  0
 40 41  1  0
 43 44  1  0
 43 47  1  0
 45 46  1  0
 46 47  1  0
 48 49  1  0
  1 50  1  6
  3 51  1  0
  3 52  1  0
  6 53  1  0
  6 54  1  0
  7 55  1  0
  7 56  1  0
 10 57  1  0
 10 58  1  0
 10 59  1  0
 12 60  1  1
 13 61  1  0
 16 62  1  0
 19 63  1  0
 20 64  1  0
 23 65  1  0
 25 66  1  0
 25 67  1  0
 28 68  1  0
 29 69  1  1
 35 70  1  0
 36 71  1  0
 37 72  1  0
 37 73  1  0
 39 74  1  0
 41 75  1  0
 43 76  1  0
 43 77  1  0
 44 78  1  0
 44 79  1  0
 45 80  1  0
 45 81  1  0
 46 82  1  0
 46 83  1  0
 47 84  1  1
 48 85  1  0
 48 86  1  0
 49 87  1  0
M  CHG  1  47   1
M  END
>  <filename_input>  (1) 
8A2D_KXY_docked.sdf

>  <pdb_id>  (1) 
8A2D_KXY

>  <pose_rank>  (1) 
0

>  <num_atoms_heavy>  (1) 
49

>  <num_torsions>  (1) 
9

>  <pose>  (1) 
[-3.5059199013128417, -10.854584470867183, 21.276610378515667, 1.443227289762136, -5.9344850516471634, 0.9115592724537571, -2.660000842128113, 6.5177842938965815, 3.1719845207323147, 4.672424885449344, 0.8193634262830485, 4.072769809176267, -6.686240999407577, -2.4092817070462624, -0.10809208230124173]

>  <energy>  (1) 
-1002.0413128426516

>  <inter_energy>  (1) 
-1005.8359295388796

>  <intra_energy>  (1) 
15.762864789162945

>  <rmsd>  (1) 
1.73729

>  <sdf_rank>  (1) 
0

$$$$

     RDKit          3D

 87 94  0  0  0  0  0  0  0  0999 V2000
   -7.8879   -9.4898   22.9356 C   0  0  1  0  0  0  0  0  0  0  0  0
   -8.1887  -10.6072   23.8678 C   0  0  0  0  0  0  0  0  0  0  0  0
   -9.3524   -5.0954   21.5172 C   0  0  0  0  0  0  0  0  0  0  0  0
   -8.4050   -8.1801   23.4238 C   0  0  0  0  0  0  0  0  0  0  0  0
   -8.6810   -7.0887   22.7213 C   0  0  0  0  0  0  0  0  0  0  0  0
   -8.6849   -6.4535   21.3182 C   0  0  0  0  0  0  0  0  0  0  0  0
   -8.8011   -3.6048   23.6504 C   0  0  0  0  0  0  0  0  0  0  0  0
   -3.5044  -10.5658   21.2153 C   0  0  0  0  0  0  0  0  0  0  0  0
   -7.4385  -10.9244   24.7970 O   0  0  0  0  0  0  0  0  0  0  0  0
   -3.8607  -11.5736   20.1139 C   0  0  0  0  0  0  0  0  0  0  0  0
   -9.8032  -12.2584   24.4911 C   0  0  0  0  0  0  0  0  0  0  0  0
    3.1319  -16.7226   14.5746 C   0  0  1  0  0  0  0  0  0  0  0  0
  -11.2227  -13.8373   25.1869 C   0  0  0  0  0  0  0  0  0  0  0  0
   -4.5263  -10.0397   21.9648 C   0  0  0  0  0  0  0  0  0  0  0  0
   -4.2836   -9.1009   23.0114 C   0  0  0  0  0  0  0  0  0  0  0  0
   -5.5315   -8.7336   23.5023 C   0  0  0  0  0  0  0  0  0  0  0  0
   -2.9303   -8.7104   23.3284 C   0  0  0  0  0  0  0  0  0  0  0  0
    0.9571  -11.8108   19.5005 C   0  0  0  0  0  0  0  0  0  0  0  0
    1.8087  -12.6541   20.1692 C   0  0  0  0  0  0  0  0  0  0  0  0
    2.8861  -13.2460   19.4336 C   0  0  0  0  0  0  0  0  0  0  0  0
   -9.3851   -4.8699   23.0198 C   0  0  2  0  0  0  0  0  0  0  0  0
   -9.1100   -6.1207   23.6053 N   0  0  0  0  0  0  0  0  0  0  0  0
   -9.0650   -6.6830   24.8163 C   0  0  0  0  0  0  0  0  0  0  0  0
   -8.6534   -7.9422   24.7535 N   0  0  0  0  0  0  0  0  0  0  0  0
  -10.3319   -3.8650   23.6817 C   0  0  0  0  0  0  0  0  0  0  0  0
   -6.4194   -9.4197   22.7467 N   0  0  0  0  0  0  0  0  0  0  0  0
   -2.2181  -10.2144   21.5627 C   0  0  0  0  0  0  0  0  0  0  0  0
   -1.9454   -9.3147   22.5753 C   0  0  0  0  0  0  0  0  0  0  0  0
   -2.5918   -7.8386   24.4558 C   0  0  1  0  0  0  0  0  0  0  0  0
   -1.2584   -8.0197   24.8128 F   0  0  0  0  0  0  0  0  0  0  0  0
   -2.6108   -6.5261   24.0913 F   0  0  0  0  0  0  0  0  0  0  0  0
   -1.0683  -10.7870   20.8496 C   0  0  0  0  0  0  0  0  0  0  0  0
   -0.1613  -11.2601   20.2664 C   0  0  0  0  0  0  0  0  0  0  0  0
    2.9534  -12.9991   18.0994 C   0  0  0  0  0  0  0  0  0  0  0  0
    2.0614  -12.1802   17.4073 C   0  0  0  0  0  0  0  0  0  0  0  0
    1.0148  -11.5885   18.1378 C   0  0  0  0  0  0  0  0  0  0  0  0
    4.1407  -13.6221   17.3383 C   0  0  0  0  0  0  0  0  0  0  0  0
   -5.8557  -10.2369   21.8242 N   0  0  0  0  0  0  0  0  0  0  0  0
   -9.3611  -11.2647   23.6728 N   0  0  0  0  0  0  0  0  0  0  0  0
   -8.9485  -12.9209   25.8193 S   0  0  0  0  0  0  0  0  0  0  0  0
  -10.2548  -14.0441   26.1032 C   0  0  0  0  0  0  0  0  0  0  0  0
  -10.9495  -12.8334   24.2759 N   0  0  0  0  0  0  0  0  0  0  0  0
    3.0601  -15.8123   16.9344 C   0  0  0  0  0  0  0  0  0  0  0  0
    2.2816  -16.5706   15.8463 C   0  0  0  0  0  0  0  0  0  0  0  0
    3.6116  -15.3575   14.0454 C   0  0  0  0  0  0  0  0  0  0  0  0
    4.4278  -14.6911   15.1596 C   0  0  0  0  0  0  0  0  0  0  0  0
    3.5653  -14.5538   16.3495 N   0  0  2  0  0  0  0  0  0  0  0  0
    4.3425  -17.5995   14.9008 C   0  0  0  0  0  0  0  0  0  0  0  0
    3.9520  -18.9599   14.7595 O   0  0  0  0  0  0  0  0  0  0  0  0
   -8.3969   -9.6907   21.9814 H   0  0  0  0  0  0  0  0  0  0  0  0
   -8.7684   -4.3049   21.0232 H   0  0  0  0  0  0  0  0  0  0  0  0
  -10.3619   -5.0711   21.0808 H   0  0  0  0  0  0  0  0  0  0  0  0
   -9.2613   -7.0708   20.6133 H   0  0  0  0  0  0  0  0  0  0  0  0
   -7.6733   -6.3652   20.8955 H   0  0  0  0  0  0  0  0  0  0  0  0
   -8.2114   -3.6723   24.5765 H   0  0  0  0  0  0  0  0  0  0  0  0
   -8.1558   -2.7852   23.3013 H   0  0  0  0  0  0  0  0  0  0  0  0
   -4.1939  -12.5161   20.5730 H   0  0  0  0  0  0  0  0  0  0  0  0
   -4.6686  -11.1642   19.4896 H   0  0  0  0  0  0  0  0  0  0  0  0
   -2.9750  -11.7629   19.4896 H   0  0  0  0  0  0  0  0  0  0  0  0
    2.5141  -17.1856   13.7911 H   0  0  0  0  0  0  0  0  0  0  0  0
  -12.1550  -14.4207   25.1659 H   0  0  0  0  0  0  0  0  0  0  0  0
   -5.7492   -8.0371   24.3254 H   0  0  0  0  0  0  0  0  0  0  0  0
    1.6681  -12.8692   21.2388 H   0  0  0  0  0  0  0  0  0  0  0  0
    3.6343  -13.8795   19.9326 H   0  0  0  0  0  0  0  0  0  0  0  0
   -9.3356   -6.1662   25.7489 H   0  0  0  0  0  0  0  0  0  0  0  0
  -10.8291   -4.1176   24.6298 H   0  0  0  0  0  0  0  0  0  0  0  0
  -11.2255   -3.3077   23.3641 H   0  0  0  0  0  0  0  0  0  0  0  0
   -0.8950   -9.0692   22.7906 H   0  0  0  0  0  0  0  0  0  0  0  0
   -3.3152   -8.0804   25.2484 H   0  0  0  0  0  0  0  0  0  0  0  0
    2.1725  -12.0030   16.3274 H   0  0  0  0  0  0  0  0  0  0  0  0
    0.2607  -10.9641   17.6365 H   0  0  0  0  0  0  0  0  0  0  0  0
    4.7188  -12.8372   16.8287 H   0  0  0  0  0  0  0  0  0  0  0  0
    4.8224  -14.1444   18.0257 H   0  0  0  0  0  0  0  0  0  0  0  0
   -9.9440  -10.9984   22.8664 H   0  0  0  0  0  0  0  0  0  0  0  0
  -10.2838  -14.7998   26.9020 H   0  0  0  0  0  0  0  0  0  0  0  0
    2.3942  -15.5883   17.7807 H   0  0  0  0  0  0  0  0  0  0  0  0
    3.8981  -16.4249   17.2982 H   0  0  0  0  0  0  0  0  0  0  0  0
    1.3652  -16.0130   15.6032 H   0  0  0  0  0  0  0  0  0  0  0  0
    2.0302  -17.5723   16.2250 H   0  0  0  0  0  0  0  0  0  0  0  0
    4.2399  -15.5002   13.1538 H   0  0  0  0  0  0  0  0  0  0  0  0
    2.7542  -14.7283   13.7644 H   0  0  0  0  0  0  0  0  0  0  0  0
    5.3013  -15.3136   15.4036 H   0  0  0  0  0  0  0  0  0  0  0  0
    4.7794  -13.7019   14.8311 H   0  0  0  0  0  0  0  0  0  0  0  0
    2.6995  -14.1242   15.9934 H   0  0  0  0  0  0  0  0  0  0  0  0
    5.1650  -17.3733   14.2062 H   0  0  0  0  0  0  0  0  0  0  0  0
    4.6883  -17.4063   15.9270 H   0  0  0  0  0  0  0  0  0  0  0  0
    3.8358  -19.3646   15.6555 H   0  0  0  0  0  0  0  0  0  0  0  0
  1  2  1  0
  1  4  1  0
  1 26  1  0
  2  9  2  0
  2 39  1  0
  3  6  1  0
 21  3  1  6
  4  5  2  0
  4 24  1  0
  5  6  1  0
  5 22  1  0
  7 21  1  0
  7 25  1  0
  8 10  1  0
  8 14  1  0
  8 27  2  0
 11 39  1  0
 11 40  1  0
 11 42  2  0
 12 44  1  0
 12 45  1  0
 12 48  1  0
 13 41  2  0
 13 42  1  0
 14 15  1  0
 14 38  2  0
 15 16  2  0
 15 17  1  0
 16 26  1  0
 17 28  2  0
 17 29  1  0
 18 19  2  0
 18 33  1  0
 18 36  1  0
 19 20  1  0
 20 34  2  0
 21 22  1  0
 21 25  1  0
 22 23  1  0
 23 24  2  0
 26 38  1  0
 27 28  1  0
 27 32  1  0
 29 30  1  0
 29 31  1  0
 32 33  3  0
 34 35  1  0
 34 37  1  0
 35 36  2  0
 47 37  1  0
 40 41  1  0
 43 44  1  0
 43 47  1  0
 45 46  1  0
 46 47  1  0
 48 49  1  0
  1 50  1  6
  3 51  1  0
  3 52  1  0
  6 53  1  0
  6 54  1  0
  7 55  1  0
  7 56  1  0
 10 57  1  0
 10 58  1  0
 10 59  1  0
 12 60  1  6
 13 61  1  0
 16 62  1  0
 19 63  1  0
 20 64  1  0
 23 65  1  0
 25 66  1  0
 25 67  1  0
 28 68  1  0
 29 69  1  1
 35 70  1  0
 36 71  1  0
 37 72  1  0
 37 73  1  0
 39 74  1  0
 41 75  1  0
 43 76  1  0
 43 77  1  0
 44 78  1  0
 44 79  1  0
 45 80  1  0
 45 81  1  0
 46 82  1  0
 46 83  1  0
 47 84  1  6
 48 85  1  0
 48 86  1  0
 49 87  1  0
M  CHG  1  47   1
M  END
>  <filename_input>  (2) 
8A2D_KXY_docked.sdf

>  <pdb_id>  (2) 
8A2D_KXY

>  <pose_rank>  (2) 
1

>  <num_atoms_heavy>  (2) 
49

>  <num_torsions>  (2) 
9

>  <pose>  (2) 
[-3.5044037362801177, -10.56577729501292, 21.21533706848107, -5.6728079775475075, -2.252278688701396, 0.04820739018806597, 3.6448860086620587, 0.9383146640242763, 0.5475787801801416, -2.598536336538097, 1.3377940336150809, -1.8856512947776858, -0.14515979502349213, -2.6596278827551356, -0.08404123053065307]

>  <energy>  (2) 
-967.3125297934826

>  <inter_energy>  (2) 
-968.4412270968263

>  <intra_energy>  (2) 
11.95758808603831

>  <rmsd>  (2) 
2.33043

>  <sdf_rank>  (2) 
0

$$$$

     RDKit          3D

 87 94  0  0  0  0  0  0  0  0999 V2000
   -7.4457   -8.8731   24.1893 C   0  0  1  0  0  0  0  0  0  0  0  0
   -8.2120   -7.9361   23.3274 C   0  0  0  0  0  0  0  0  0  0  0  0
  -11.6305  -11.3122   24.1153 C   0  0  0  0  0  0  0  0  0  0  0  0
   -8.0410  -10.2388   24.2234 C   0  0  0  0  0  0  0  0  0  0  0  0
   -9.3234  -10.5796   24.2361 C   0  0  0  0  0  0  0  0  0  0  0  0
  -10.7722  -10.0569   24.2462 C   0  0  0  0  0  0  0  0  0  0  0  0
  -11.0086  -13.5333   25.4406 C   0  0  0  0  0  0  0  0  0  0  0  0
   -3.7125  -10.1047   21.3824 C   0  0  0  0  0  0  0  0  0  0  0  0
   -8.6653   -8.2597   22.2244 O   0  0  0  0  0  0  0  0  0  0  0  0
   -4.4315  -10.8447   20.2459 C   0  0  0  0  0  0  0  0  0  0  0  0
   -9.1709   -5.7499   23.1784 C   0  0  0  0  0  0  0  0  0  0  0  0
    1.0345  -15.9919   12.8820 C   0  0  1  0  0  0  0  0  0  0  0  0
  -10.1238   -3.7472   22.9079 C   0  0  0  0  0  0  0  0  0  0  0  0
   -4.4711   -9.6132   22.4148 C   0  0  0  0  0  0  0  0  0  0  0  0
   -3.8836   -8.9176   23.5132 C   0  0  0  0  0  0  0  0  0  0  0  0
   -4.9368   -8.5076   24.3229 C   0  0  0  0  0  0  0  0  0  0  0  0
   -2.4511   -8.7488   23.5749 C   0  0  0  0  0  0  0  0  0  0  0  0
    0.1861  -11.5206   18.6397 C   0  0  0  0  0  0  0  0  0  0  0  0
    0.6607  -12.7845   18.8867 C   0  0  0  0  0  0  0  0  0  0  0  0
    1.5323  -13.3785   17.9172 C   0  0  0  0  0  0  0  0  0  0  0  0
  -10.6936  -12.4798   24.3777 C   0  0  2  0  0  0  0  0  0  0  0  0
   -9.3891  -11.9562   24.2931 N   0  0  0  0  0  0  0  0  0  0  0  0
   -8.1236  -12.3837   24.3182 C   0  0  0  0  0  0  0  0  0  0  0  0
   -7.2669  -11.3727   24.2644 N   0  0  0  0  0  0  0  0  0  0  0  0
  -11.0146  -13.9095   23.9338 C   0  0  0  0  0  0  0  0  0  0  0  0
   -6.0520   -8.9368   23.6887 N   0  0  0  0  0  0  0  0  0  0  0  0
   -2.3447   -9.9722   21.4823 C   0  0  0  0  0  0  0  0  0  0  0  0
   -1.7409   -9.3118   22.5352 C   0  0  0  0  0  0  0  0  0  0  0  0
   -1.7646   -8.1445   24.7192 C   0  0  1  0  0  0  0  0  0  0  0  0
   -2.6932   -7.7679   25.6856 F   0  0  0  0  0  0  0  0  0  0  0  0
   -1.0155   -9.0633   25.3903 F   0  0  0  0  0  0  0  0  0  0  0  0
   -1.4620  -10.5304   20.4490 C   0  0  0  0  0  0  0  0  0  0  0  0
   -0.7398  -10.9601   19.6242 C   0  0  0  0  0  0  0  0  0  0  0  0
    1.7735  -12.6860   16.7736 C   0  0  0  0  0  0  0  0  0  0  0  0
    1.2547  -11.4210   16.4982 C   0  0  0  0  0  0  0  0  0  0  0  0
    0.4124  -10.8356   17.4610 C   0  0  0  0  0  0  0  0  0  0  0  0
    2.7401  -13.3339   15.7621 C   0  0  0  0  0  0  0  0  0  0  0  0
   -5.8157   -9.6285   22.5474 N   0  0  0  0  0  0  0  0  0  0  0  0
   -8.4248   -6.6889   23.8217 N   0  0  0  0  0  0  0  0  0  0  0  0
   -9.8758   -5.9169   21.6264 S   0  0  0  0  0  0  0  0  0  0  0  0
  -10.4920   -4.2864   21.7277 C   0  0  0  0  0  0  0  0  0  0  0  0
   -9.3688   -4.5808   23.7124 N   0  0  0  0  0  0  0  0  0  0  0  0
    1.8995  -15.5999   15.2273 C   0  0  0  0  0  0  0  0  0  0  0  0
    0.8281  -16.2993   14.3740 C   0  0  0  0  0  0  0  0  0  0  0  0
    1.0388  -14.4755   12.6097 C   0  0  0  0  0  0  0  0  0  0  0  0
    2.1677  -13.8594   13.4451 C   0  0  0  0  0  0  0  0  0  0  0  0
    1.9160  -14.1680   14.8664 N   0  0  2  0  0  0  0  0  0  0  0  0
    2.3696  -16.5952   12.4412 C   0  0  0  0  0  0  0  0  0  0  0  0
    2.1376  -17.3720   11.2724 O   0  0  0  0  0  0  0  0  0  0  0  0
   -7.4746   -8.4937   25.2214 H   0  0  0  0  0  0  0  0  0  0  0  0
  -12.4441  -11.2995   24.8555 H   0  0  0  0  0  0  0  0  0  0  0  0
  -12.0987  -11.3824   23.1224 H   0  0  0  0  0  0  0  0  0  0  0  0
  -10.9463   -9.3765   23.3996 H   0  0  0  0  0  0  0  0  0  0  0  0
  -11.0044   -9.4836   25.1558 H   0  0  0  0  0  0  0  0  0  0  0  0
  -10.2109  -13.9077   26.0990 H   0  0  0  0  0  0  0  0  0  0  0  0
  -11.7282  -13.6158   26.2684 H   0  0  0  0  0  0  0  0  0  0  0  0
   -5.1383  -11.5722   20.6716 H   0  0  0  0  0  0  0  0  0  0  0  0
   -4.9799  -10.1203   19.6259 H   0  0  0  0  0  0  0  0  0  0  0  0
   -3.6915  -11.3720   19.6259 H   0  0  0  0  0  0  0  0  0  0  0  0
    0.2011  -16.4304   12.3135 H   0  0  0  0  0  0  0  0  0  0  0  0
  -10.4019   -2.7257   23.2066 H   0  0  0  0  0  0  0  0  0  0  0  0
   -4.8765   -7.9548   25.2720 H   0  0  0  0  0  0  0  0  0  0  0  0
    0.3800  -13.3256   19.8023 H   0  0  0  0  0  0  0  0  0  0  0  0
    1.9910  -14.3627   18.0930 H   0  0  0  0  0  0  0  0  0  0  0  0
   -7.8291  -13.4419   24.3763 H   0  0  0  0  0  0  0  0  0  0  0  0
  -10.2210  -14.5505   23.5222 H   0  0  0  0  0  0  0  0  0  0  0  0
  -11.7398  -14.3698   23.2466 H   0  0  0  0  0  0  0  0  0  0  0  0
   -0.6438   -9.2315   22.5446 H   0  0  0  0  0  0  0  0  0  0  0  0
   -1.1701   -7.3156   24.3074 H   0  0  0  0  0  0  0  0  0  0  0  0
    1.4958  -10.8990   15.5605 H   0  0  0  0  0  0  0  0  0  0  0  0
   -0.0548   -9.8564   17.2800 H   0  0  0  0  0  0  0  0  0  0  0  0
    3.2614  -12.5567   15.1839 H   0  0  0  0  0  0  0  0  0  0  0  0
    3.5045  -13.9369   16.2740 H   0  0  0  0  0  0  0  0  0  0  0  0
   -8.0008   -6.4419   24.7273 H   0  0  0  0  0  0  0  0  0  0  0  0
  -11.0859   -3.7798   20.9527 H   0  0  0  0  0  0  0  0  0  0  0  0
    1.6570  -15.7121   16.2944 H   0  0  0  0  0  0  0  0  0  0  0  0
    2.8860  -16.0496   15.0412 H   0  0  0  0  0  0  0  0  0  0  0  0
   -0.1666  -15.9443   14.6815 H   0  0  0  0  0  0  0  0  0  0  0  0
    0.9096  -17.3858   14.5255 H   0  0  0  0  0  0  0  0  0  0  0  0
    1.2169  -14.2866   11.5407 H   0  0  0  0  0  0  0  0  0  0  0  0
    0.0699  -14.0308   12.8805 H   0  0  0  0  0  0  0  0  0  0  0  0
    3.1335  -14.2867   13.1375 H   0  0  0  0  0  0  0  0  0  0  0  0
    2.1989  -12.7703   13.2943 H   0  0  0  0  0  0  0  0  0  0  0  0
    0.9331  -13.9006   15.0192 H   0  0  0  0  0  0  0  0  0  0  0  0
    3.0869  -15.7914   12.2187 H   0  0  0  0  0  0  0  0  0  0  0  0
    2.7867  -17.2245   13.2412 H   0  0  0  0  0  0  0  0  0  0  0  0
    1.8642  -18.2871   11.5332 H   0  0  0  0  0  0  0  0  0  0  0  0
  1  2  1  0
  1  4  1  0
  1 26  1  0
  2  9  2  0
  2 39  1  0
  3  6  1  0
 21  3  1  6
  4  5  2  0
  4 24  1  0
  5  6  1  0
  5 22  1  0
  7 21  1  0
  7 25  1  0
  8 10  1  0
  8 14  1  0
  8 27  2  0
 11 39  1  0
 11 40  1  0
 11 42  2  0
 12 44  1  0
 12 45  1  0
 12 48  1  0
 13 41  2  0
 13 42  1  0
 14 15  1  0
 14 38  2  0
 15 16  2  0
 15 17  1  0
 16 26  1  0
 17 28  2  0
 17 29  1  0
 18 19  2  0
 18 33  1  0
 18 36  1  0
 19 20  1  0
 20 34  2  0
 21 22  1  0
 21 25  1  0
 22 23  1  0
 23 24  2  0
 26 38  1  0
 27 28  1  0
 27 32  1  0
 29 30  1  0
 29 31  1  0
 32 33  3  0
 34 35  1  0
 34 37  1  0
 35 36  2  0
 47 37  1  0
 40 41  1  0
 43 44  1  0
 43 47  1  0
 45 46  1  0
 46 47  1  0
 48 49  1  0
  1 50  1  1
  3 51  1  0
  3 52  1  0
  6 53  1  0
  6 54  1  0
  7 55  1  0
  7 56  1  0
 10 57  1  0
 10 58  1  0
 10 59  1  0
 12 60  1  6
 13 61  1  0
 16 62  1  0
 19 63  1  0
 20 64  1  0
 23 65  1  0
 25 66  1  0
 25 67  1  0
 28 68  1  0
 29 69  1  6
 35 70  1  0
 36 71  1  0
 37 72  1  0
 37 73  1  0
 39 74  1  0
 41 75  1  0
 43 76  1  0
 43 77  1  0
 44 78  1  0
 44 79  1  0
 45 80  1  0
 45 81  1  0
 46 82  1  0
 46 83  1  0
 47 84  1  1
 48 85  1  0
 48 86  1  0
 49 87  1  0
M  CHG  1  47   1
M  END
>  <filename_input>  (3) 
8A2D_KXY_docked.sdf

>  <pdb_id>  (3) 
8A2D_KXY

>  <pose_rank>  (3) 
2

>  <num_atoms_heavy>  (3) 
49

>  <num_torsions>  (3) 
9

>  <pose>  (3) 
[-3.712530883154527, -10.104711133707903, 21.38238556697189, -4.32458173111853, -3.419002649983577, 1.8687531993784927, 7.152639939270373, -2.6781256942004243, 4.532234272628671, -3.084625986027206, 0.9291960141236596, -1.1223723993414154, 3.3777996892325626, -0.5681737637058674, -5.556699722412075]

>  <energy>  (3) 
-822.1913227465136

>  <inter_energy>  (3) 
-862.5263270440405

>  <intra_energy>  (3) 
47.33546792202384

>  <rmsd>  (3) 
4.83938

>  <sdf_rank>  (3) 
0

$$$$

     RDKit          3D

 87 94  0  0  0  0  0  0  0  0999 V2000
   -6.9811   -8.8000   24.1553 C   0  0  1  0  0  0  0  0  0  0  0  0
   -7.5376   -7.5894   23.4976 C   0  0  0  0  0  0  0  0  0  0  0  0
   -9.3538  -12.2397   26.6062 C   0  0  0  0  0  0  0  0  0  0  0  0
   -7.8626   -9.9921   24.0037 C   0  0  0  0  0  0  0  0  0  0  0  0
   -8.3303  -10.7976   24.9488 C   0  0  0  0  0  0  0  0  0  0  0  0
   -8.3461  -11.1028   26.4584 C   0  0  0  0  0  0  0  0  0  0  0  0
   -9.4290  -14.2323   24.8454 C   0  0  0  0  0  0  0  0  0  0  0  0
   -3.5547  -11.0278   21.5806 C   0  0  0  0  0  0  0  0  0  0  0  0
   -7.2947   -7.2943   22.3225 O   0  0  0  0  0  0  0  0  0  0  0  0
   -4.3868  -12.0772   20.8307 C   0  0  0  0  0  0  0  0  0  0  0  0
   -9.0066   -5.7194   23.7557 C   0  0  0  0  0  0  0  0  0  0  0  0
    6.0464  -15.9285   16.4427 C   0  0  1  0  0  0  0  0  0  0  0  0
  -10.3521   -3.9385   23.8547 C   0  0  0  0  0  0  0  0  0  0  0  0
   -4.2035  -10.1942   22.4564 C   0  0  0  0  0  0  0  0  0  0  0  0
   -3.5061   -9.1945   23.1979 C   0  0  0  0  0  0  0  0  0  0  0  0
   -4.4709   -8.5012   23.9200 C   0  0  0  0  0  0  0  0  0  0  0  0
   -2.0744   -9.0664   23.0633 C   0  0  0  0  0  0  0  0  0  0  0  0
   -0.0920  -13.4712   19.0518 C   0  0  0  0  0  0  0  0  0  0  0  0
   -0.3054  -14.8141   19.2377 C   0  0  0  0  0  0  0  0  0  0  0  0
    0.3435  -15.7292   18.3467 C   0  0  0  0  0  0  0  0  0  0  0  0
   -9.6022  -12.7542   25.1979 C   0  0  2  0  0  0  0  0  0  0  0  0
   -9.0825  -11.7744   24.3302 N   0  0  0  0  0  0  0  0  0  0  0  0
   -9.0253  -11.5089   23.0221 C   0  0  0  0  0  0  0  0  0  0  0  0
   -8.3032  -10.4238   22.7765 N   0  0  0  0  0  0  0  0  0  0  0  0
  -10.8379  -13.5792   24.8281 C   0  0  0  0  0  0  0  0  0  0  0  0
   -5.6456   -9.0765   23.5748 N   0  0  0  0  0  0  0  0  0  0  0  0
   -2.1834  -10.9187   21.5001 C   0  0  0  0  0  0  0  0  0  0  0  0
   -1.4745   -9.9681   22.2092 C   0  0  0  0  0  0  0  0  0  0  0  0
   -1.2741   -8.1410   23.8690 C   0  0  1  0  0  0  0  0  0  0  0  0
   -1.7992   -6.8550   23.7773 F   0  0  0  0  0  0  0  0  0  0  0  0
   -1.4015   -8.4038   25.1996 F   0  0  0  0  0  0  0  0  0  0  0  0
   -1.4114  -11.8200   20.6340 C   0  0  0  0  0  0  0  0  0  0  0  0
   -0.8062  -12.5601   19.9466 C   0  0  0  0  0  0  0  0  0  0  0  0
    1.0683  -15.2095   17.3219 C   0  0  0  0  0  0  0  0  0  0  0  0
    1.2484  -13.8440   17.1020 C   0  0  0  0  0  0  0  0  0  0  0  0
    0.6222  -12.9502   17.9897 C   0  0  0  0  0  0  0  0  0  0  0  0
    1.7821  -16.2161   16.3976 C   0  0  0  0  0  0  0  0  0  0  0  0
   -5.5278  -10.1163   22.7136 N   0  0  0  0  0  0  0  0  0  0  0  0
   -8.3660   -6.8156   24.2459 N   0  0  0  0  0  0  0  0  0  0  0  0
   -8.8186   -5.0650   22.1841 S   0  0  0  0  0  0  0  0  0  0  0  0
   -9.9300   -3.7791   22.5836 C   0  0  0  0  0  0  0  0  0  0  0  0
   -9.8141   -5.0319   24.5083 N   0  0  0  0  0  0  0  0  0  0  0  0
    3.8975  -16.0975   15.1175 C   0  0  0  0  0  0  0  0  0  0  0  0
    5.2944  -15.4580   15.1871 C   0  0  0  0  0  0  0  0  0  0  0  0
    5.2497  -15.6303   17.7272 C   0  0  0  0  0  0  0  0  0  0  0  0
    3.8995  -16.3482   17.6104 C   0  0  0  0  0  0  0  0  0  0  0  0
    3.2119  -15.8519   16.4023 N   0  0  2  0  0  0  0  0  0  0  0  0
    6.2889  -17.4348   16.3286 C   0  0  0  0  0  0  0  0  0  0  0  0
    7.2332  -17.8057   17.3256 O   0  0  0  0  0  0  0  0  0  0  0  0
   -6.9061   -8.6021   25.2347 H   0  0  0  0  0  0  0  0  0  0  0  0
   -8.9404  -13.0388   27.2391 H   0  0  0  0  0  0  0  0  0  0  0  0
  -10.2840  -11.8984   27.0839 H   0  0  0  0  0  0  0  0  0  0  0  0
   -8.6685  -10.2203   27.0304 H   0  0  0  0  0  0  0  0  0  0  0  0
   -7.3510  -11.3726   26.8417 H   0  0  0  0  0  0  0  0  0  0  0  0
   -8.9435  -14.5207   23.9014 H   0  0  0  0  0  0  0  0  0  0  0  0
   -8.9795  -15.1053   25.3412 H   0  0  0  0  0  0  0  0  0  0  0  0
   -4.9003  -12.7249   21.5565 H   0  0  0  0  0  0  0  0  0  0  0  0
   -5.1319  -11.5714   20.1992 H   0  0  0  0  0  0  0  0  0  0  0  0
   -3.7244  -12.6874   20.1992 H   0  0  0  0  0  0  0  0  0  0  0  0
    6.9995  -15.3832   16.5074 H   0  0  0  0  0  0  0  0  0  0  0  0
  -11.0673   -3.2533   24.3333 H   0  0  0  0  0  0  0  0  0  0  0  0
   -4.3134   -7.6669   24.6194 H   0  0  0  0  0  0  0  0  0  0  0  0
   -0.9557  -15.1772   20.0472 H   0  0  0  0  0  0  0  0  0  0  0  0
    0.2577  -16.8167   18.4877 H   0  0  0  0  0  0  0  0  0  0  0  0
   -9.5157  -12.1145   22.2458 H   0  0  0  0  0  0  0  0  0  0  0  0
  -11.3526  -13.4033   23.8720 H   0  0  0  0  0  0  0  0  0  0  0  0
  -11.8047  -13.7949   25.3064 H   0  0  0  0  0  0  0  0  0  0  0  0
   -0.3821   -9.9286   22.0870 H   0  0  0  0  0  0  0  0  0  0  0  0
   -0.2418   -8.2416   23.5026 H   0  0  0  0  0  0  0  0  0  0  0  0
    1.8592  -13.4786   16.2633 H   0  0  0  0  0  0  0  0  0  0  0  0
    0.6992  -11.8629   17.8418 H   0  0  0  0  0  0  0  0  0  0  0  0
    1.6499  -17.2399   16.7774 H   0  0  0  0  0  0  0  0  0  0  0  0
    1.3675  -16.1827   15.3793 H   0  0  0  0  0  0  0  0  0  0  0  0
   -8.5166   -7.0708   25.2324 H   0  0  0  0  0  0  0  0  0  0  0  0
  -10.2370   -2.9682   21.9066 H   0  0  0  0  0  0  0  0  0  0  0  0
    3.3219  -15.6457   14.2962 H   0  0  0  0  0  0  0  0  0  0  0  0
    3.9838  -17.1786   14.9339 H   0  0  0  0  0  0  0  0  0  0  0  0
    5.1892  -14.3635   15.2184 H   0  0  0  0  0  0  0  0  0  0  0  0
    5.8666  -15.7616   14.2981 H   0  0  0  0  0  0  0  0  0  0  0  0
    5.7985  -16.0033   18.6045 H   0  0  0  0  0  0  0  0  0  0  0  0
    5.1028  -14.5469   17.8489 H   0  0  0  0  0  0  0  0  0  0  0  0
    4.0614  -17.4330   17.5268 H   0  0  0  0  0  0  0  0  0  0  0  0
    3.2873  -16.1499   18.5025 H   0  0  0  0  0  0  0  0  0  0  0  0
    3.2652  -14.8260   16.4772 H   0  0  0  0  0  0  0  0  0  0  0  0
    5.3456  -17.9777   16.4878 H   0  0  0  0  0  0  0  0  0  0  0  0
    6.6719  -17.6850   15.3282 H   0  0  0  0  0  0  0  0  0  0  0  0
    6.8434  -17.6526   18.2226 H   0  0  0  0  0  0  0  0  0  0  0  0
  1  2  1  0
  1  4  1  0
  1 26  1  0
  2  9  2  0
  2 39  1  0
  3  6  1  0
 21  3  1  1
  4  5  2  0
  4 24  1  0
  5  6  1  0
  5 22  1  0
  7 21  1  0
  7 25  1  0
  8 10  1  0
  8 14  1  0
  8 27  2  0
 11 39  1  0
 11 40  1  0
 11 42  2  0
 12 44  1  0
 12 45  1  0
 12 48  1  0
 13 41  2  0
 13 42  1  0
 14 15  1  0
 14 38  2  0
 15 16  2  0
 15 17  1  0
 16 26  1  0
 17 28  2  0
 17 29  1  0
 18 19  2  0
 18 33  1  0
 18 36  1  0
 19 20  1  0
 20 34  2  0
 21 22  1  0
 21 25  1  0
 22 23  1  0
 23 24  2  0
 26 38  1  0
 27 28  1  0
 27 32  1  0
 29 30  1  0
 29 31  1  0
 32 33  3  0
 34 35  1  0
 34 37  1  0
 35 36  2  0
 47 37  1  0
 40 41  1  0
 43 44  1  0
 43 47  1  0
 45 46  1  0
 46 47  1  0
 48 49  1  0
  1 50  1  1
  3 51  1  0
  3 52  1  0
  6 53  1  0
  6 54  1  0
  7 55  1  0
  7 56  1  0
 10 57  1  0
 10 58  1  0
 10 59  1  0
 12 60  1  1
 13 61  1  0
 16 62  1  0
 19 63  1  0
 20 64  1  0
 23 65  1  0
 25 66  1  0
 25 67  1  0
 28 68  1  0
 29 69  1  6
 35 70  1  0
 36 71  1  0
 37 72  1  0
 37 73  1  0
 39 74  1  0
 41 75  1  0
 43 76  1  0
 43 77  1  0
 44 78  1  0
 44 79  1  0
 45 80  1  0
 45 81  1  0
 46 82  1  0
 46 83  1  0
 47 84  1  1
 48 85  1  0
 48 86  1  0
 49 87  1  0
M  CHG  1  47   1
M  END
>  <filename_input>  (4) 
8A2D_KXY_docked.sdf

>  <pdb_id>  (4) 
8A2D_KXY

>  <pose_rank>  (4) 
3

>  <num_atoms_heavy>  (4) 
49

>  <num_torsions>  (4) 
9

>  <pose>  (4) 
[-3.5546563423415396, -11.027800626768181, 21.58062572320428, 0.0005066581106274344, 0.3361032802246906, -0.22761872930603874, -0.04839332652115037, 6.618846512545695, 8.466103845381456, -0.5336389474183001, 0.08788600906020018, 5.823931604198234, 2.829860683713183, -2.128764165651072, -0.11070744817942044]

>  <energy>  (4) 
-848.782637590621

>  <inter_energy>  (4) 
-867.3389079869912

>  <intra_energy>  (4) 
24.99982859785255

>  <rmsd>  (4) 
4.5211

>  <sdf_rank>  (4) 
0

$$$$

     RDKit          3D

 87 94  0  0  0  0  0  0  0  0999 V2000
   -7.4282   -9.2449   22.4527 C   0  0  1  0  0  0  0  0  0  0  0  0
   -7.8979  -10.4875   23.1186 C   0  0  0  0  0  0  0  0  0  0  0  0
   -9.9124   -5.1024   22.0841 C   0  0  0  0  0  0  0  0  0  0  0  0
   -7.8258   -8.0128   23.1906 C   0  0  0  0  0  0  0  0  0  0  0  0
   -8.5245   -6.9753   22.7476 C   0  0  0  0  0  0  0  0  0  0  0  0
   -9.2447   -6.3596   21.5333 C   0  0  0  0  0  0  0  0  0  0  0  0
   -8.6427   -3.5312   23.8149 C   0  0  0  0  0  0  0  0  0  0  0  0
   -3.0810  -10.8884   21.1360 C   0  0  0  0  0  0  0  0  0  0  0  0
   -7.9892  -11.5696   22.5291 O   0  0  0  0  0  0  0  0  0  0  0  0
   -3.4737  -12.0309   20.1891 C   0  0  0  0  0  0  0  0  0  0  0  0
   -8.5753  -11.4616   25.1955 C   0  0  0  0  0  0  0  0  0  0  0  0
    4.2905  -15.9948   14.1791 C   0  0  1  0  0  0  0  0  0  0  0  0
   -9.2164  -12.5024   27.0657 C   0  0  0  0  0  0  0  0  0  0  0  0
   -4.0860  -10.1788   21.7439 C   0  0  0  0  0  0  0  0  0  0  0  0
   -3.8098   -9.1051   22.6419 C   0  0  0  0  0  0  0  0  0  0  0  0
   -5.0426   -8.5770   23.0083 C   0  0  0  0  0  0  0  0  0  0  0  0
   -2.4429   -8.7660   22.9595 C   0  0  0  0  0  0  0  0  0  0  0  0
    1.3440  -12.6805   19.8518 C   0  0  0  0  0  0  0  0  0  0  0  0
    2.4492  -11.9429   19.5081 C   0  0  0  0  0  0  0  0  0  0  0  0
    3.5730  -12.6334   18.9490 C   0  0  0  0  0  0  0  0  0  0  0  0
   -9.2866   -4.8694   23.4494 C   0  0  2  0  0  0  0  0  0  0  0  0
   -8.6220   -6.0660   23.7802 N   0  0  0  0  0  0  0  0  0  0  0  0
   -7.9620   -6.6058   24.8087 C   0  0  0  0  0  0  0  0  0  0  0  0
   -7.4705   -7.7983   24.4999 N   0  0  0  0  0  0  0  0  0  0  0  0
   -9.9464   -3.9958   24.5198 C   0  0  0  0  0  0  0  0  0  0  0  0
   -5.9528   -9.3099   22.3267 N   0  0  0  0  0  0  0  0  0  0  0  0
   -1.7850  -10.5783   21.4864 C   0  0  0  0  0  0  0  0  0  0  0  0
   -1.4808   -9.5506   22.3585 C   0  0  0  0  0  0  0  0  0  0  0  0
   -2.0795   -7.7522   23.9524 C   0  0  1  0  0  0  0  0  0  0  0  0
   -3.2274   -7.2416   24.5521 F   0  0  0  0  0  0  0  0  0  0  0  0
   -1.4297   -8.3073   25.0133 F   0  0  0  0  0  0  0  0  0  0  0  0
   -0.6576  -11.3370   20.9280 C   0  0  0  0  0  0  0  0  0  0  0  0
    0.2315  -11.9545   20.4648 C   0  0  0  0  0  0  0  0  0  0  0  0
    3.5073  -13.9878   18.8660 C   0  0  0  0  0  0  0  0  0  0  0  0
    2.4038  -14.7451   19.2584 C   0  0  0  0  0  0  0  0  0  0  0  0
    1.2966  -14.0603   19.7917 C   0  0  0  0  0  0  0  0  0  0  0  0
    4.7168  -14.7027   18.2310 C   0  0  0  0  0  0  0  0  0  0  0  0
   -5.4206  -10.3013   21.5713 N   0  0  0  0  0  0  0  0  0  0  0  0
   -8.2037  -10.3932   24.4387 N   0  0  0  0  0  0  0  0  0  0  0  0
   -8.8216  -13.0584   24.6272 S   0  0  0  0  0  0  0  0  0  0  0  0
   -9.2819  -13.5624   26.2342 C   0  0  0  0  0  0  0  0  0  0  0  0
   -8.8267  -11.3202   26.4635 N   0  0  0  0  0  0  0  0  0  0  0  0
    3.8241  -16.3731   16.6371 C   0  0  0  0  0  0  0  0  0  0  0  0
    3.2554  -16.4700   15.2115 C   0  0  0  0  0  0  0  0  0  0  0  0
    4.7704  -14.5608   14.4743 C   0  0  0  0  0  0  0  0  0  0  0  0
    5.3774  -14.5577   15.8827 C   0  0  0  0  0  0  0  0  0  0  0  0
    4.3430  -15.0048   16.8360 N   0  0  2  0  0  0  0  0  0  0  0  0
    5.4842  -16.9512   14.2114 C   0  0  0  0  0  0  0  0  0  0  0  0
    5.2892  -17.9334   13.2012 O   0  0  0  0  0  0  0  0  0  0  0  0
   -7.9040   -9.1836   21.4628 H   0  0  0  0  0  0  0  0  0  0  0  0
   -9.7202   -4.2448   21.4227 H   0  0  0  0  0  0  0  0  0  0  0  0
  -11.0041   -5.2190   22.1523 H   0  0  0  0  0  0  0  0  0  0  0  0
   -9.9963   -7.0556   21.1326 H   0  0  0  0  0  0  0  0  0  0  0  0
   -8.5554   -6.1391   20.7049 H   0  0  0  0  0  0  0  0  0  0  0  0
   -7.6934   -3.5097   24.3703 H   0  0  0  0  0  0  0  0  0  0  0  0
   -8.3343   -2.6351   23.2564 H   0  0  0  0  0  0  0  0  0  0  0  0
   -3.7755  -12.9088   20.7791 H   0  0  0  0  0  0  0  0  0  0  0  0
   -4.3129  -11.7093   19.5548 H   0  0  0  0  0  0  0  0  0  0  0  0
   -2.6141  -12.2932   19.5548 H   0  0  0  0  0  0  0  0  0  0  0  0
    3.8200  -15.9909   13.1848 H   0  0  0  0  0  0  0  0  0  0  0  0
   -9.4539  -12.5728   28.1374 H   0  0  0  0  0  0  0  0  0  0  0  0
   -5.2358   -7.7448   23.7013 H   0  0  0  0  0  0  0  0  0  0  0  0
    2.4714  -10.8534   19.6575 H   0  0  0  0  0  0  0  0  0  0  0  0
    4.4598  -12.0851   18.5985 H   0  0  0  0  0  0  0  0  0  0  0  0
   -7.8414   -6.1218   25.7890 H   0  0  0  0  0  0  0  0  0  0  0  0
   -9.9227   -4.3045   25.5753 H   0  0  0  0  0  0  0  0  0  0  0  0
  -10.9484   -3.5674   24.6698 H   0  0  0  0  0  0  0  0  0  0  0  0
   -0.4231   -9.3490   22.5837 H   0  0  0  0  0  0  0  0  0  0  0  0
   -1.4749   -7.0084   23.4127 H   0  0  0  0  0  0  0  0  0  0  0  0
    2.3993  -15.8402   19.1545 H   0  0  0  0  0  0  0  0  0  0  0  0
    0.4146  -14.6099   20.1522 H   0  0  0  0  0  0  0  0  0  0  0  0
    5.6000  -14.0473   18.2539 H   0  0  0  0  0  0  0  0  0  0  0  0
    4.9691  -15.6208   18.7818 H   0  0  0  0  0  0  0  0  0  0  0  0
   -8.1520   -9.4682   24.8888 H   0  0  0  0  0  0  0  0  0  0  0  0
   -9.5781  -14.5818   26.5225 H   0  0  0  0  0  0  0  0  0  0  0  0
    3.0299  -16.5801   17.3695 H   0  0  0  0  0  0  0  0  0  0  0  0
    4.6304  -17.1086   16.7748 H   0  0  0  0  0  0  0  0  0  0  0  0
    2.3567  -15.8400   15.1379 H   0  0  0  0  0  0  0  0  0  0  0  0
    3.0039  -17.5202   15.0021 H   0  0  0  0  0  0  0  0  0  0  0  0
    5.5298  -14.2599   13.7376 H   0  0  0  0  0  0  0  0  0  0  0  0
    3.9318  -13.8516   14.4127 H   0  0  0  0  0  0  0  0  0  0  0  0
    6.2370  -15.2433   15.9184 H   0  0  0  0  0  0  0  0  0  0  0  0
    5.7211  -13.5461   16.1443 H   0  0  0  0  0  0  0  0  0  0  0  0
    3.5178  -14.4314   16.6102 H   0  0  0  0  0  0  0  0  0  0  0  0
    6.4131  -16.3951   14.0168 H   0  0  0  0  0  0  0  0  0  0  0  0
    5.5634  -17.4296   15.1987 H   0  0  0  0  0  0  0  0  0  0  0  0
    5.1150  -18.8115   13.6239 H   0  0  0  0  0  0  0  0  0  0  0  0
  1  2  1  0
  1  4  1  0
  1 26  1  0
  2  9  2  0
  2 39  1  0
  3  6  1  0
 21  3  1  6
  4  5  2  0
  4 24  1  0
  5  6  1  0
  5 22  1  0
  7 21  1  0
  7 25  1  0
  8 10  1  0
  8 14  1  0
  8 27  2  0
 11 39  1  0
 11 40  1  0
 11 42  2  0
 12 44  1  0
 12 45  1  0
 12 48  1  0
 13 41  2  0
 13 42  1  0
 14 15  1  0
 14 38  2  0
 15 16  2  0
 15 17  1  0
 16 26  1  0
 17 28  2  0
 17 29  1  0
 18 19  2  0
 18 33  1  0
 18 36  1  0
 19 20  1  0
 20 34  2  0
 21 22  1  0
 21 25  1  0
 22 23  1  0
 23 24  2  0
 26 38  1  0
 27 28  1  0
 27 32  1  0
 29 30  1  0
 29 31  1  0
 32 33  3  0
 34 35  1  0
 34 37  1  0
 35 36  2  0
 47 37  1  0
 40 41  1  0
 43 44  1  0
 43 47  1  0
 45 46  1  0
 46 47  1  0
 48 49  1  0
  1 50  1  6
  3 51  1  0
  3 52  1  0
  6 53  1  0
  6 54  1  0
  7 55  1  0
  7 56  1  0
 10 57  1  0
 10 58  1  0
 10 59  1  0
 12 60  1  6
 13 61  1  0
 16 62  1  0
 19 63  1  0
 20 64  1  0
 23 65  1  0
 25 66  1  0
 25 67  1  0
 28 68  1  0
 29 69  1  6
 35 70  1  0
 36 71  1  0
 37 72  1  0
 37 73  1  0
 39 74  1  0
 41 75  1  0
 43 76  1  0
 43 77  1  0
 44 78  1  0
 44 79  1  0
 45 80  1  0
 45 81  1  0
 46 82  1  0
 46 83  1  0
 47 84  1  6
 48 85  1  0
 48 86  1  0
 49 87  1  0
M  CHG  1  47   1
M  END
>  <filename_input>  (5) 
8A2D_KXY_docked.sdf

>  <pdb_id>  (5) 
8A2D_KXY

>  <pose_rank>  (5) 
4

>  <num_atoms_heavy>  (5) 
49

>  <num_torsions>  (5) 
9

>  <pose>  (5) 
[-3.081048790998221, -10.888442686623295, 21.136046628031668, 0.010912760016451658, 0.016853076895072865, -0.07728103854640563, -5.358832520835756, -5.009292880438857, 4.6569653517997445, -0.10870959314343435, 0.964562955378496, -1.7231178864998027, -0.5161354108650351, -8.342662825100088, -2.0163901404011706]

>  <energy>  (5) 
-860.7588761766149

>  <inter_energy>  (5) 
-922.8934202534084

>  <intra_energy>  (5) 
66.53471766184933

>  <rmsd>  (5) 
1.90487

>  <sdf_rank>  (5) 
0

$$$$

     RDKit          3D

 87 94  0  0  0  0  0  0  0  0999 V2000
   -6.3619   -9.0375   23.9850 C   0  0  1  0  0  0  0  0  0  0  0  0
   -7.1427   -7.9680   23.3109 C   0  0  0  0  0  0  0  0  0  0  0  0
   -9.8799  -12.2927   23.2813 C   0  0  0  0  0  0  0  0  0  0  0  0
   -7.2297  -10.0360   24.6712 C   0  0  0  0  0  0  0  0  0  0  0  0
   -8.1970  -10.7823   24.1534 C   0  0  0  0  0  0  0  0  0  0  0  0
   -8.9865  -11.1235   22.8757 C   0  0  0  0  0  0  0  0  0  0  0  0
  -11.0991  -12.3207   25.6454 C   0  0  0  0  0  0  0  0  0  0  0  0
   -2.3733  -10.4138   21.6335 C   0  0  0  0  0  0  0  0  0  0  0  0
   -6.7508   -7.3963   22.2880 O   0  0  0  0  0  0  0  0  0  0  0  0
   -1.2812   -9.8657   22.5624 C   0  0  0  0  0  0  0  0  0  0  0  0
   -9.2009   -6.7493   23.3092 C   0  0  0  0  0  0  0  0  0  0  0  0
    6.5142  -16.9117   17.4129 C   0  0  1  0  0  0  0  0  0  0  0  0
  -11.0780   -5.5440   23.1830 C   0  0  0  0  0  0  0  0  0  0  0  0
   -3.6835  -10.1883   21.9733 C   0  0  0  0  0  0  0  0  0  0  0  0
   -4.7606  -10.6580   21.1641 C   0  0  0  0  0  0  0  0  0  0  0  0
   -5.9295  -10.3173   21.8353 C   0  0  0  0  0  0  0  0  0  0  0  0
   -4.4831  -11.3594   19.9330 C   0  0  0  0  0  0  0  0  0  0  0  0
    1.7076  -11.7361   19.1370 C   0  0  0  0  0  0  0  0  0  0  0  0
    2.2850  -12.9055   19.5644 C   0  0  0  0  0  0  0  0  0  0  0  0
    3.5927  -13.2288   19.0770 C   0  0  0  0  0  0  0  0  0  0  0  0
   -9.8254  -12.3442   24.7992 C   0  0  2  0  0  0  0  0  0  0  0  0
   -8.7345  -11.5370   25.1753 N   0  0  0  0  0  0  0  0  0  0  0  0
   -8.0582  -11.1988   26.2767 C   0  0  0  0  0  0  0  0  0  0  0  0
   -7.1221  -10.2963   26.0156 N   0  0  0  0  0  0  0  0  0  0  0  0
  -10.2109  -13.5938   25.5956 C   0  0  0  0  0  0  0  0  0  0  0  0
   -5.5153   -9.7096   22.9708 N   0  0  0  0  0  0  0  0  0  0  0  0
   -2.1298  -11.0457   20.4335 C   0  0  0  0  0  0  0  0  0  0  0  0
   -3.1477  -11.5068   19.6209 C   0  0  0  0  0  0  0  0  0  0  0  0
   -5.5289  -11.7760   18.9957 C   0  0  1  0  0  0  0  0  0  0  0  0
   -5.7159  -13.1533   19.0740 F   0  0  0  0  0  0  0  0  0  0  0  0
   -6.7498  -11.3035   19.3724 F   0  0  0  0  0  0  0  0  0  0  0  0
   -0.7530  -11.2646   19.9698 C   0  0  0  0  0  0  0  0  0  0  0  0
    0.3528  -11.4571   19.6139 C   0  0  0  0  0  0  0  0  0  0  0  0
    4.1503  -12.3970   18.1588 C   0  0  0  0  0  0  0  0  0  0  0  0
    3.5460  -11.2322   17.6865 C   0  0  0  0  0  0  0  0  0  0  0  0
    2.2686  -10.9111   18.1808 C   0  0  0  0  0  0  0  0  0  0  0  0
    5.5709  -12.7511   17.6754 C   0  0  0  0  0  0  0  0  0  0  0  0
   -4.1700   -9.5894   23.0826 N   0  0  0  0  0  0  0  0  0  0  0  0
   -8.3455   -7.6543   23.8585 N   0  0  0  0  0  0  0  0  0  0  0  0
   -8.8935   -5.7873   21.9259 S   0  0  0  0  0  0  0  0  0  0  0  0
  -10.4528   -5.0231   22.1073 C   0  0  0  0  0  0  0  0  0  0  0  0
  -10.3549   -6.5098   23.8588 N   0  0  0  0  0  0  0  0  0  0  0  0
    6.8079  -14.6908   18.5892 C   0  0  0  0  0  0  0  0  0  0  0  0
    6.6665  -16.2111   18.7727 C   0  0  0  0  0  0  0  0  0  0  0  0
    5.3225  -16.3494   16.6144 C   0  0  0  0  0  0  0  0  0  0  0  0
    5.5644  -14.8476   16.4198 C   0  0  0  0  0  0  0  0  0  0  0  0
    5.6875  -14.2201   17.7500 N   0  0  2  0  0  0  0  0  0  0  0  0
    7.8046  -16.7120   16.6156 C   0  0  0  0  0  0  0  0  0  0  0  0
    8.7068  -17.7531   16.9697 O   0  0  0  0  0  0  0  0  0  0  0  0
   -5.7430   -8.5720   24.7662 H   0  0  0  0  0  0  0  0  0  0  0  0
  -10.9118  -12.1234   22.9400 H   0  0  0  0  0  0  0  0  0  0  0  0
   -9.5420  -13.2375   22.8305 H   0  0  0  0  0  0  0  0  0  0  0  0
   -8.3048  -11.4180   22.0641 H   0  0  0  0  0  0  0  0  0  0  0  0
   -9.5636  -10.2665   22.4984 H   0  0  0  0  0  0  0  0  0  0  0  0
  -11.1412  -11.7134   26.5616 H   0  0  0  0  0  0  0  0  0  0  0  0
  -12.1597  -12.1012   25.4532 H   0  0  0  0  0  0  0  0  0  0  0  0
   -1.5812  -10.0163   23.6099 H   0  0  0  0  0  0  0  0  0  0  0  0
   -0.3370  -10.3967   22.3715 H   0  0  0  0  0  0  0  0  0  0  0  0
   -1.1427   -8.7913   22.3715 H   0  0  0  0  0  0  0  0  0  0  0  0
    6.3241  -17.9811   17.5869 H   0  0  0  0  0  0  0  0  0  0  0  0
  -12.0829   -5.2259   23.4977 H   0  0  0  0  0  0  0  0  0  0  0  0
   -6.9650  -10.5015   21.5134 H   0  0  0  0  0  0  0  0  0  0  0  0
    1.7590  -13.5749   20.2609 H   0  0  0  0  0  0  0  0  0  0  0  0
    4.1277  -14.1210   19.4343 H   0  0  0  0  0  0  0  0  0  0  0  0
   -8.2534  -11.6167   27.2753 H   0  0  0  0  0  0  0  0  0  0  0  0
   -9.6219  -13.8901   26.4761 H   0  0  0  0  0  0  0  0  0  0  0  0
  -10.3779  -14.6537   25.3532 H   0  0  0  0  0  0  0  0  0  0  0  0
   -2.8809  -12.0146   18.6823 H   0  0  0  0  0  0  0  0  0  0  0  0
   -5.2075  -11.4126   18.0085 H   0  0  0  0  0  0  0  0  0  0  0  0
    4.0508  -10.5867   16.9526 H   0  0  0  0  0  0  0  0  0  0  0  0
    1.7295  -10.0247   17.8151 H   0  0  0  0  0  0  0  0  0  0  0  0
    5.7150  -12.4111   16.6393 H   0  0  0  0  0  0  0  0  0  0  0  0
    6.3350  -12.2604   18.2961 H   0  0  0  0  0  0  0  0  0  0  0  0
   -8.6238   -8.1241   24.7319 H   0  0  0  0  0  0  0  0  0  0  0  0
  -10.8604   -4.2416   21.4493 H   0  0  0  0  0  0  0  0  0  0  0  0
    6.7735  -14.1928   19.5694 H   0  0  0  0  0  0  0  0  0  0  0  0
    7.7682  -14.4544   18.1077 H   0  0  0  0  0  0  0  0  0  0  0  0
    5.7784  -16.4194   19.3875 H   0  0  0  0  0  0  0  0  0  0  0  0
    7.5717  -16.5930   19.2674 H   0  0  0  0  0  0  0  0  0  0  0  0
    5.2566  -16.8489   15.6366 H   0  0  0  0  0  0  0  0  0  0  0  0
    4.3792  -16.5229   17.1531 H   0  0  0  0  0  0  0  0  0  0  0  0
    6.4910  -14.6915   15.8480 H   0  0  0  0  0  0  0  0  0  0  0  0
    4.7271  -14.3983   15.8656 H   0  0  0  0  0  0  0  0  0  0  0  0
    4.8713  -14.5647   18.2753 H   0  0  0  0  0  0  0  0  0  0  0  0
    7.5881  -16.7565   15.5380 H   0  0  0  0  0  0  0  0  0  0  0  0
    8.2460  -15.7306   16.8433 H   0  0  0  0  0  0  0  0  0  0  0  0
    8.7639  -17.8190   17.9559 H   0  0  0  0  0  0  0  0  0  0  0  0
  1  2  1  0
  1  4  1  0
  1 26  1  0
  2  9  2  0
  2 39  1  0
  3  6  1  0
 21  3  1  6
  4  5  2  0
  4 24  1  0
  5  6  1  0
  5 22  1  0
  7 21  1  0
  7 25  1  0
  8 10  1  0
  8 14  1  0
  8 27  2  0
 11 39  1  0
 11 40  1  0
 11 42  2  0
 12 44  1  0
 12 45  1  0
 12 48  1  0
 13 41  2  0
 13 42  1  0
 14 15  1  0
 14 38  2  0
 15 16  2  0
 15 17  1  0
 16 26  1  0
 17 28  2  0
 17 29  1  0
 18 19  2  0
 18 33  1  0
 18 36  1  0
 19 20  1  0
 20 34  2  0
 21 22  1  0
 21 25  1  0
 22 23  1  0
 23 24  2  0
 26 38  1  0
 27 28  1  0
 27 32  1  0
 29 30  1  0
 29 31  1  0
 32 33  3  0
 34 35  1  0
 34 37  1  0
 35 36  2  0
 47 37  1  0
 40 41  1  0
 43 44  1  0
 43 47  1  0
 45 46  1  0
 46 47  1  0
 48 49  1  0
  1 50  1  1
  3 51  1  0
  3 52  1  0
  6 53  1  0
  6 54  1  0
  7 55  1  0
  7 56  1  0
 10 57  1  0
 10 58  1  0
 10 59  1  0
 12 60  1  1
 13 61  1  0
 16 62  1  0
 19 63  1  0
 20 64  1  0
 23 65  1  0
 25 66  1  0
 25 67  1  0
 28 68  1  0
 29 69  1  6
 35 70  1  0
 36 71  1  0
 37 72  1  0
 37 73  1  0
 39 74  1  0
 41 75  1  0
 43 76  1  0
 43 77  1  0
 44 78  1  0
 44 79  1  0
 45 80  1  0
 45 81  1  0
 46 82  1  0
 46 83  1  0
 47 84  1  1
 48 85  1  0
 48 86  1  0
 49 87  1  0
M  CHG  1  47   1
M  END
>  <filename_input>  (6) 
8A2D_KXY_docked.sdf

>  <pdb_id>  (6) 
8A2D_KXY

>  <pose_rank>  (6) 
5

>  <num_atoms_heavy>  (6) 
49

>  <num_torsions>  (6) 
9

>  <pose>  (6) 
[-2.3733245550896456, -10.41382879041635, 21.633532087916254, -2.4703697052627795, 0.8473811194081813, 1.0398736272837112, -0.9758673674788448, 2.34713341023643, 2.6489719585880414, -4.122234784619663, 0.49399544935186146, -1.8572134886123008, 0.3904201299263766, 1.086868915038278, -1.1439041645306847]

>  <energy>  (6) 
-839.6712485908806

>  <inter_energy>  (6) 
-893.209371068673

>  <intra_energy>  (6) 
46.98338843074646

>  <rmsd>  (6) 
4.68155

>  <sdf_rank>  (6) 
0

$$$$

     RDKit          3D

 87 94  0  0  0  0  0  0  0  0999 V2000
   -6.9966   -8.8396   23.9912 C   0  0  1  0  0  0  0  0  0  0  0  0
   -7.6451   -7.8234   23.1225 C   0  0  0  0  0  0  0  0  0  0  0  0
  -11.1493  -11.0538   25.1400 C   0  0  0  0  0  0  0  0  0  0  0  0
   -7.7054  -10.1503   23.9688 C   0  0  0  0  0  0  0  0  0  0  0  0
   -8.9097  -10.4450   24.4419 C   0  0  0  0  0  0  0  0  0  0  0  0
  -10.1508   -9.8999   25.1732 C   0  0  0  0  0  0  0  0  0  0  0  0
  -10.3534  -13.5578   25.5560 C   0  0  0  0  0  0  0  0  0  0  0  0
   -3.2496  -10.4701   21.4155 C   0  0  0  0  0  0  0  0  0  0  0  0
   -7.2128   -7.5244   22.0043 O   0  0  0  0  0  0  0  0  0  0  0  0
   -3.9715  -11.2602   20.3153 C   0  0  0  0  0  0  0  0  0  0  0  0
   -9.5150   -6.3500   22.8904 C   0  0  0  0  0  0  0  0  0  0  0  0
    7.1486  -14.3549   16.9456 C   0  0  1  0  0  0  0  0  0  0  0  0
  -11.2117   -4.9397   22.5379 C   0  0  0  0  0  0  0  0  0  0  0  0
   -4.0123   -9.8624   22.3809 C   0  0  0  0  0  0  0  0  0  0  0  0
   -3.4228   -9.1129   23.4421 C   0  0  0  0  0  0  0  0  0  0  0  0
   -4.4773   -8.5893   24.1817 C   0  0  0  0  0  0  0  0  0  0  0  0
   -1.9860   -9.0109   23.5395 C   0  0  0  0  0  0  0  0  0  0  0  0
    0.5891  -12.2356   18.8298 C   0  0  0  0  0  0  0  0  0  0  0  0
    0.6777  -13.6049   18.8534 C   0  0  0  0  0  0  0  0  0  0  0  0
    1.5067  -14.2436   17.8751 C   0  0  0  0  0  0  0  0  0  0  0  0
  -10.3502  -12.2767   24.7207 C   0  0  2  0  0  0  0  0  0  0  0  0
   -9.1302  -11.7876   24.2154 N   0  0  0  0  0  0  0  0  0  0  0  0
   -8.0287  -12.2444   23.6131 C   0  0  0  0  0  0  0  0  0  0  0  0
   -7.1377  -11.2791   23.4302 N   0  0  0  0  0  0  0  0  0  0  0  0
  -11.0090  -13.5348   24.1483 C   0  0  0  0  0  0  0  0  0  0  0  0
   -5.5937   -9.0112   23.5446 N   0  0  0  0  0  0  0  0  0  0  0  0
   -1.8803  -10.3979   21.5515 C   0  0  0  0  0  0  0  0  0  0  0  0
   -1.2750   -9.6879   22.5706 C   0  0  0  0  0  0  0  0  0  0  0  0
   -1.3038   -8.3536   24.6568 C   0  0  1  0  0  0  0  0  0  0  0  0
   -0.4713   -7.3456   24.1784 F   0  0  0  0  0  0  0  0  0  0  0  0
   -2.1798   -7.6530   25.4299 F   0  0  0  0  0  0  0  0  0  0  0  0
   -0.9971  -11.0782   20.5946 C   0  0  0  0  0  0  0  0  0  0  0  0
   -0.3027  -11.6156   19.8101 C   0  0  0  0  0  0  0  0  0  0  0  0
    2.0931  -13.4602   16.9327 C   0  0  0  0  0  0  0  0  0  0  0  0
    1.9670  -12.0724   16.8772 C   0  0  0  0  0  0  0  0  0  0  0  0
    1.1647  -11.4489   17.8503 C   0  0  0  0  0  0  0  0  0  0  0  0
    3.0054  -14.1694   15.9119 C   0  0  0  0  0  0  0  0  0  0  0  0
   -5.3593   -9.8008   22.4684 N   0  0  0  0  0  0  0  0  0  0  0  0
   -8.7743   -7.2416   23.6037 N   0  0  0  0  0  0  0  0  0  0  0  0
   -9.1248   -5.7309   21.3419 S   0  0  0  0  0  0  0  0  0  0  0  0
  -10.5573   -4.7333   21.3767 C   0  0  0  0  0  0  0  0  0  0  0  0
  -10.6061   -5.8468   23.3879 N   0  0  0  0  0  0  0  0  0  0  0  0
    5.3437  -13.5839   15.3487 C   0  0  0  0  0  0  0  0  0  0  0  0
    6.6735  -13.2165   16.0282 C   0  0  0  0  0  0  0  0  0  0  0  0
    6.0842  -14.7176   17.9989 C   0  0  0  0  0  0  0  0  0  0  0  0
    4.8125  -15.1299   17.2474 C   0  0  0  0  0  0  0  0  0  0  0  0
    4.3892  -14.0014   16.3955 N   0  0  2  0  0  0  0  0  0  0  0  0
    7.4530  -15.5806   16.0821 C   0  0  0  0  0  0  0  0  0  0  0  0
    8.7964  -15.4760   15.6265 O   0  0  0  0  0  0  0  0  0  0  0  0
   -7.0362   -8.4806   25.0302 H   0  0  0  0  0  0  0  0  0  0  0  0
  -11.5913  -11.2073   26.1355 H   0  0  0  0  0  0  0  0  0  0  0  0
  -11.9789  -10.8533   24.4461 H   0  0  0  0  0  0  0  0  0  0  0  0
  -10.5551   -9.0204   24.6507 H   0  0  0  0  0  0  0  0  0  0  0  0
   -9.9229   -9.5724   26.1982 H   0  0  0  0  0  0  0  0  0  0  0  0
   -9.4172  -14.1118   25.7191 H   0  0  0  0  0  0  0  0  0  0  0  0
  -10.6879  -13.8285   26.5683 H   0  0  0  0  0  0  0  0  0  0  0  0
   -4.6453  -11.9978   20.7756 H   0  0  0  0  0  0  0  0  0  0  0  0
   -4.5563  -10.5688   19.6909 H   0  0  0  0  0  0  0  0  0  0  0  0
   -3.2301  -11.7803   19.6909 H   0  0  0  0  0  0  0  0  0  0  0  0
    8.0491  -14.0220   17.4824 H   0  0  0  0  0  0  0  0  0  0  0  0
  -12.1522   -4.4273   22.7888 H   0  0  0  0  0  0  0  0  0  0  0  0
   -4.4170   -7.9677   25.0872 H   0  0  0  0  0  0  0  0  0  0  0  0
    0.1282  -14.1949   19.6018 H   0  0  0  0  0  0  0  0  0  0  0  0
    1.6633  -15.3324   17.8866 H   0  0  0  0  0  0  0  0  0  0  0  0
   -7.8794  -13.2904   23.3070 H   0  0  0  0  0  0  0  0  0  0  0  0
  -10.5381  -14.0719   23.3118 H   0  0  0  0  0  0  0  0  0  0  0  0
  -12.0021  -13.7818   23.7451 H   0  0  0  0  0  0  0  0  0  0  0  0
   -0.1761   -9.6614   22.6112 H   0  0  0  0  0  0  0  0  0  0  0  0
   -0.7855   -9.1549   25.2037 H   0  0  0  0  0  0  0  0  0  0  0  0
    2.4773  -11.4854   16.0994 H   0  0  0  0  0  0  0  0  0  0  0  0
    0.9996  -10.3615   17.8318 H   0  0  0  0  0  0  0  0  0  0  0  0
    2.7508  -15.2379   15.8535 H   0  0  0  0  0  0  0  0  0  0  0  0
    2.8821  -13.7422   14.9058 H   0  0  0  0  0  0  0  0  0  0  0  0
   -9.0850   -7.4871   24.5545 H   0  0  0  0  0  0  0  0  0  0  0  0
  -10.8754   -4.0461   20.5789 H   0  0  0  0  0  0  0  0  0  0  0  0
    4.9471  -12.7104   14.8103 H   0  0  0  0  0  0  0  0  0  0  0  0
    5.4985  -14.4009   14.6286 H   0  0  0  0  0  0  0  0  0  0  0  0
    6.5328  -12.3049   16.6275 H   0  0  0  0  0  0  0  0  0  0  0  0
    7.4332  -13.0491   15.2505 H   0  0  0  0  0  0  0  0  0  0  0  0
    6.4404  -15.5523   18.6204 H   0  0  0  0  0  0  0  0  0  0  0  0
    5.8836  -13.8598   18.6577 H   0  0  0  0  0  0  0  0  0  0  0  0
    5.0196  -16.0106   16.6218 H   0  0  0  0  0  0  0  0  0  0  0  0
    4.0161  -15.3836   17.9625 H   0  0  0  0  0  0  0  0  0  0  0  0
    4.3958  -13.1856   17.0243 H   0  0  0  0  0  0  0  0  0  0  0  0
    7.3316  -16.4968   16.6787 H   0  0  0  0  0  0  0  0  0  0  0  0
    6.7624  -15.6262   15.2270 H   0  0  0  0  0  0  0  0  0  0  0  0
    9.4061  -15.4285   16.4050 H   0  0  0  0  0  0  0  0  0  0  0  0
  1  2  1  0
  1  4  1  0
  1 26  1  0
  2  9  2  0
  2 39  1  0
  3  6  1  0
 21  3  1  1
  4  5  2  0
  4 24  1  0
  5  6  1  0
  5 22  1  0
  7 21  1  0
  7 25  1  0
  8 10  1  0
  8 14  1  0
  8 27  2  0
 11 39  1  0
 11 40  1  0
 11 42  2  0
 12 44  1  0
 12 45  1  0
 12 48  1  0
 13 41  2  0
 13 42  1  0
 14 15  1  0
 14 38  2  0
 15 16  2  0
 15 17  1  0
 16 26  1  0
 17 28  2  0
 17 29  1  0
 18 19  2  0
 18 33  1  0
 18 36  1  0
 19 20  1  0
 20 34  2  0
 21 22  1  0
 21 25  1  0
 22 23  1  0
 23 24  2  0
 26 38  1  0
 27 28  1  0
 27 32  1  0
 29 30  1  0
 29 31  1  0
 32 33  3  0
 34 35  1  0
 34 37  1  0
 35 36  2  0
 47 37  1  0
 40 41  1  0
 43 44  1  0
 43 47  1  0
 45 46  1  0
 46 47  1  0
 48 49  1  0
  1 50  1  1
  3 51  1  0
  3 52  1  0
  6 53  1  0
  6 54  1  0
  7 55  1  0
  7 56  1  0
 10 57  1  0
 10 58  1  0
 10 59  1  0
 12 60  1  1
 13 61  1  0
 16 62  1  0
 19 63  1  0
 20 64  1  0
 23 65  1  0
 25 66  1  0
 25 67  1  0
 28 68  1  0
 29 69  1  1
 35 70  1  0
 36 71  1  0
 37 72  1  0
 37 73  1  0
 39 74  1  0
 41 75  1  0
 43 76  1  0
 43 77  1  0
 44 78  1  0
 44 79  1  0
 45 80  1  0
 45 81  1  0
 46 82  1  0
 46 83  1  0
 47 84  1  1
 48 85  1  0
 48 86  1  0
 49 87  1  0
M  CHG  1  47   1
M  END
>  <filename_input>  (7) 
8A2D_KXY_docked.sdf

>  <pdb_id>  (7) 
8A2D_KXY

>  <pose_rank>  (7) 
6

>  <num_atoms_heavy>  (7) 
49

>  <num_torsions>  (7) 
9

>  <pose>  (7) 
[-3.2495879657494235, -10.470062148021498, 21.415528551031468, -3.9552459474619184, -3.2250293652169395, 2.908203956014678, -1.280252317211496, 1.8154473729789509, 0.3992855528277243, -0.07205064091876877, 6.590864772717553, -1.8618048526693, 9.555170553098272, -1.0866975807847663, -0.3119918030043878]

>  <energy>  (7) 
-818.1006736576622

>  <inter_energy>  (7) 
-883.8264228285716

>  <intra_energy>  (7) 
67.18033581029734

>  <rmsd>  (7) 
4.11403

>  <sdf_rank>  (7) 
0

$$$$

     RDKit          3D

 87 94  0  0  0  0  0  0  0  0999 V2000
   -6.1880   -9.7513   21.6530 C   0  0  1  0  0  0  0  0  0  0  0  0
   -6.6193  -10.1637   20.2922 C   0  0  0  0  0  0  0  0  0  0  0  0
  -10.0381  -10.5905   24.4709 C   0  0  0  0  0  0  0  0  0  0  0  0
   -6.7245  -10.6428   22.7200 C   0  0  0  0  0  0  0  0  0  0  0  0
   -7.8866  -10.5617   23.3555 C   0  0  0  0  0  0  0  0  0  0  0  0
   -9.1945   -9.7624   23.5054 C   0  0  0  0  0  0  0  0  0  0  0  0
   -8.9352  -11.7473   26.5974 C   0  0  0  0  0  0  0  0  0  0  0  0
   -1.6411  -11.0204   20.6297 C   0  0  0  0  0  0  0  0  0  0  0  0
   -7.1312   -9.3799   19.4858 O   0  0  0  0  0  0  0  0  0  0  0  0
   -1.8657  -12.0205   19.4872 C   0  0  0  0  0  0  0  0  0  0  0  0
   -6.6732  -11.9605   18.7142 C   0  0  0  0  0  0  0  0  0  0  0  0
    6.1777  -15.5623   14.1205 C   0  0  1  0  0  0  0  0  0  0  0  0
   -6.7824  -13.5442   17.1420 C   0  0  0  0  0  0  0  0  0  0  0  0
   -2.7432  -10.4470   21.2123 C   0  0  0  0  0  0  0  0  0  0  0  0
   -2.6252   -9.5116   22.2832 C   0  0  0  0  0  0  0  0  0  0  0  0
   -3.9172   -9.0893   22.5756 C   0  0  0  0  0  0  0  0  0  0  0  0
   -1.3217   -9.1752   22.8046 C   0  0  0  0  0  0  0  0  0  0  0  0
    2.9825  -12.4466   19.6240 C   0  0  0  0  0  0  0  0  0  0  0  0
    3.9884  -11.5810   19.2742 C   0  0  0  0  0  0  0  0  0  0  0  0
    5.2002  -12.1339   18.7466 C   0  0  0  0  0  0  0  0  0  0  0  0
   -9.0858  -11.6051   25.0821 C   0  0  2  0  0  0  0  0  0  0  0  0
   -7.9324  -11.5894   24.2744 N   0  0  0  0  0  0  0  0  0  0  0  0
   -6.7756  -12.2458   24.1496 C   0  0  0  0  0  0  0  0  0  0  0  0
   -6.0124  -11.7125   23.2050 N   0  0  0  0  0  0  0  0  0  0  0  0
   -9.5734  -12.8887   25.7596 C   0  0  0  0  0  0  0  0  0  0  0  0
   -4.7063   -9.7434   21.6926 N   0  0  0  0  0  0  0  0  0  0  0  0
   -0.4100  -10.7201   21.1708 C   0  0  0  0  0  0  0  0  0  0  0  0
   -0.2588   -9.8253   22.2127 C   0  0  0  0  0  0  0  0  0  0  0  0
   -1.1244   -8.3101   23.9701 C   0  0  1  0  0  0  0  0  0  0  0  0
   -0.8494   -7.0099   23.5556 F   0  0  0  0  0  0  0  0  0  0  0  0
   -2.2831   -8.1451   24.6673 F   0  0  0  0  0  0  0  0  0  0  0  0
    0.8108  -11.3451   20.6440 C   0  0  0  0  0  0  0  0  0  0  0  0
    1.7765  -11.8558   20.2046 C   0  0  0  0  0  0  0  0  0  0  0  0
    5.3108  -13.4870   18.6982 C   0  0  0  0  0  0  0  0  0  0  0  0
    4.3084  -14.3708   19.0973 C   0  0  0  0  0  0  0  0  0  0  0  0
    3.1143  -13.8221   19.5994 C   0  0  0  0  0  0  0  0  0  0  0  0
    6.6118  -14.0548   18.0964 C   0  0  0  0  0  0  0  0  0  0  0  0
   -4.0422  -10.5900   20.8687 N   0  0  0  0  0  0  0  0  0  0  0  0
   -6.3988  -11.4595   19.9495 N   0  0  0  0  0  0  0  0  0  0  0  0
   -7.4204  -11.1106   17.4286 S   0  0  0  0  0  0  0  0  0  0  0  0
   -7.3545  -12.5465   16.4374 C   0  0  0  0  0  0  0  0  0  0  0  0
   -6.4127  -13.2024   18.4299 N   0  0  0  0  0  0  0  0  0  0  0  0
    7.0804  -15.8573   16.4658 C   0  0  0  0  0  0  0  0  0  0  0  0
    6.4415  -16.5625   15.2577 C   0  0  0  0  0  0  0  0  0  0  0  0
    5.2978  -14.3878   14.5897 C   0  0  0  0  0  0  0  0  0  0  0  0
    6.0263  -13.6998   15.7506 C   0  0  0  0  0  0  0  0  0  0  0  0
    6.2414  -14.6946   16.8196 N   0  0  2  0  0  0  0  0  0  0  0  0
    7.5215  -15.0279   13.6213 C   0  0  0  0  0  0  0  0  0  0  0  0
    7.3169  -14.4524   12.3366 O   0  0  0  0  0  0  0  0  0  0  0  0
   -6.5910   -8.7474   21.8527 H   0  0  0  0  0  0  0  0  0  0  0  0
  -10.4676   -9.9477   25.2534 H   0  0  0  0  0  0  0  0  0  0  0  0
  -10.8791  -11.0803   23.9582 H   0  0  0  0  0  0  0  0  0  0  0  0
   -9.7017   -9.6605   22.5346 H   0  0  0  0  0  0  0  0  0  0  0  0
   -9.0210   -8.7398   23.8718 H   0  0  0  0  0  0  0  0  0  0  0  0
   -7.9381  -11.8812   27.0421 H   0  0  0  0  0  0  0  0  0  0  0  0
   -9.2434  -11.1546   27.4713 H   0  0  0  0  0  0  0  0  0  0  0  0
   -2.0884  -13.0126   19.9068 H   0  0  0  0  0  0  0  0  0  0  0  0
   -2.7111  -11.6861   18.8680 H   0  0  0  0  0  0  0  0  0  0  0  0
   -0.9584  -12.0796   18.8680 H   0  0  0  0  0  0  0  0  0  0  0  0
    5.6393  -16.0806   13.3134 H   0  0  0  0  0  0  0  0  0  0  0  0
   -6.6226  -14.5497   16.7254 H   0  0  0  0  0  0  0  0  0  0  0  0
   -4.2296   -8.3785   23.3548 H   0  0  0  0  0  0  0  0  0  0  0  0
    3.8678  -10.4944   19.3954 H   0  0  0  0  0  0  0  0  0  0  0  0
    6.0141  -11.4842   18.3924 H   0  0  0  0  0  0  0  0  0  0  0  0
   -6.4914  -13.1194   24.7547 H   0  0  0  0  0  0  0  0  0  0  0  0
   -9.0294  -13.8328   25.6089 H   0  0  0  0  0  0  0  0  0  0  0  0
  -10.5229  -13.4433   25.7906 H   0  0  0  0  0  0  0  0  0  0  0  0
    0.7553   -9.6220   22.5872 H   0  0  0  0  0  0  0  0  0  0  0  0
   -0.3249   -8.7816   24.5605 H   0  0  0  0  0  0  0  0  0  0  0  0
    4.4467  -15.4594   19.0220 H   0  0  0  0  0  0  0  0  0  0  0  0
    2.3051  -14.4721   19.9637 H   0  0  0  0  0  0  0  0  0  0  0  0
    7.3336  -13.2438   17.9193 H   0  0  0  0  0  0  0  0  0  0  0  0
    7.0831  -14.7765   18.7798 H   0  0  0  0  0  0  0  0  0  0  0  0
   -6.0047  -12.0937   20.6590 H   0  0  0  0  0  0  0  0  0  0  0  0
   -7.7211  -12.6249   15.4032 H   0  0  0  0  0  0  0  0  0  0  0  0
    7.1324  -16.5517   17.3174 H   0  0  0  0  0  0  0  0  0  0  0  0
    8.1001  -15.5279   16.2173 H   0  0  0  0  0  0  0  0  0  0  0  0
    5.4886  -17.0166   15.5673 H   0  0  0  0  0  0  0  0  0  0  0  0
    7.1333  -17.3366   14.8940 H   0  0  0  0  0  0  0  0  0  0  0  0
    5.1506  -13.6759   13.7642 H   0  0  0  0  0  0  0  0  0  0  0  0
    4.3100  -14.7489   14.9122 H   0  0  0  0  0  0  0  0  0  0  0  0
    6.9954  -13.3119   15.4035 H   0  0  0  0  0  0  0  0  0  0  0  0
    5.4251  -12.8605   16.1302 H   0  0  0  0  0  0  0  0  0  0  0  0
    5.3192  -15.1332   16.9543 H   0  0  0  0  0  0  0  0  0  0  0  0
    7.9007  -14.2641   14.3161 H   0  0  0  0  0  0  0  0  0  0  0  0
    8.2580  -15.8428   13.5615 H   0  0  0  0  0  0  0  0  0  0  0  0
    6.9871  -13.5246   12.4394 H   0  0  0  0  0  0  0  0  0  0  0  0
  1  2  1  0
  1  4  1  0
  1 26  1  0
  2  9  2  0
  2 39  1  0
  3  6  1  0
 21  3  1  1
  4  5  2  0
  4 24  1  0
  5  6  1  0
  5 22  1  0
  7 21  1  0
  7 25  1  0
  8 10  1  0
  8 14  1  0
  8 27  2  0
 11 39  1  0
 11 40  1  0
 11 42  2  0
 12 44  1  0
 12 45  1  0
 12 48  1  0
 13 41  2  0
 13 42  1  0
 14 15  1  0
 14 38  2  0
 15 16  2  0
 15 17  1  0
 16 26  1  0
 17 28  2  0
 17 29  1  0
 18 19  2  0
 18 33  1  0
 18 36  1  0
 19 20  1  0
 20 34  2  0
 21 22  1  0
 21 25  1  0
 22 23  1  0
 23 24  2  0
 26 38  1  0
 27 28  1  0
 27 32  1  0
 29 30  1  0
 29 31  1  0
 32 33  3  0
 34 35  1  0
 34 37  1  0
 35 36  2  0
 47 37  1  0
 40 41  1  0
 43 44  1  0
 43 47  1  0
 45 46  1  0
 46 47  1  0
 48 49  1  0
  1 50  1  1
  3 51  1  0
  3 52  1  0
  6 53  1  0
  6 54  1  0
  7 55  1  0
  7 56  1  0
 10 57  1  0
 10 58  1  0
 10 59  1  0
 12 60  1  6
 13 61  1  0
 16 62  1  0
 19 63  1  0
 20 64  1  0
 23 65  1  0
 25 66  1  0
 25 67  1  0
 28 68  1  0
 29 69  1  1
 35 70  1  0
 36 71  1  0
 37 72  1  0
 37 73  1  0
 39 74  1  0
 41 75  1  0
 43 76  1  0
 43 77  1  0
 44 78  1  0
 44 79  1  0
 45 80  1  0
 45 81  1  0
 46 82  1  0
 46 83  1  0
 47 84  1  1
 48 85  1  0
 48 86  1  0
 49 87  1  0
M  CHG  1  47   1
M  END
>  <filename_input>  (8) 
8A2D_KXY_docked.sdf

>  <pdb_id>  (8) 
8A2D_KXY

>  <pose_rank>  (8) 
7

>  <num_atoms_heavy>  (8) 
49

>  <num_torsions>  (8) 
9

>  <pose>  (8) 
[-1.6411132865940925, -11.020398612954914, 20.62968460719548, -5.248769352935896, 2.9366958024279475, 0.9755196338629069, 5.461163375257916, 1.1506124239523947, -1.721423171072988, 5.970179844612531, 0.05009726532326153, -0.5467046557314541, 4.18066821005304, -1.424591079515057, 3.7153446977062616]

>  <energy>  (8) 
-621.9287159165594

>  <inter_energy>  (8) 
-660.3708261011196

>  <intra_energy>  (8) 
48.080346723599675

>  <rmsd>  (8) 
3.91377

>  <sdf_rank>  (8) 
0

$$$$

     RDKit          3D

 87 94  0  0  0  0  0  0  0  0999 V2000
    5.0431  -13.6187   18.0064 C   0  0  1  0  0  0  0  0  0  0  0  0
    4.2617  -14.6556   17.2837 C   0  0  0  0  0  0  0  0  0  0  0  0
    6.9987  -13.5946   13.5744 C   0  0  0  0  0  0  0  0  0  0  0  0
    6.1661  -13.0746   17.1916 C   0  0  0  0  0  0  0  0  0  0  0  0
    6.4598  -13.3232   15.9217 C   0  0  0  0  0  0  0  0  0  0  0  0
    6.0601  -14.1125   14.6609 C   0  0  0  0  0  0  0  0  0  0  0  0
    9.5659  -13.1333   14.0966 C   0  0  0  0  0  0  0  0  0  0  0  0
    1.2929  -11.4162   20.1081 C   0  0  0  0  0  0  0  0  0  0  0  0
    4.3787  -15.8639   17.5141 O   0  0  0  0  0  0  0  0  0  0  0  0
    0.7387  -12.5501   20.9818 C   0  0  0  0  0  0  0  0  0  0  0  0
    2.5366  -15.0403   15.6720 C   0  0  0  0  0  0  0  0  0  0  0  0
   -8.7550  -11.5556   24.6137 C   0  0  1  0  0  0  0  0  0  0  0  0
    0.9370  -15.5448   14.1960 C   0  0  0  0  0  0  0  0  0  0  0  0
    2.3841  -11.6824   19.3199 C   0  0  0  0  0  0  0  0  0  0  0  0
    2.9598  -10.6880   18.4741 C   0  0  0  0  0  0  0  0  0  0  0  0
    4.0732  -11.2756   17.8841 C   0  0  0  0  0  0  0  0  0  0  0  0
    2.3696   -9.3722   18.4054 C   0  0  0  0  0  0  0  0  0  0  0  0
   -2.6349   -9.1505   22.1395 C   0  0  0  0  0  0  0  0  0  0  0  0
   -3.7798   -9.8745   21.9194 C   0  0  0  0  0  0  0  0  0  0  0  0
   -4.9469   -9.5370   22.6786 C   0  0  0  0  0  0  0  0  0  0  0  0
    8.0835  -12.8194   14.3037 C   0  0  2  0  0  0  0  0  0  0  0  0
    7.5999  -12.6122   15.6100 N   0  0  0  0  0  0  0  0  0  0  0  0
    7.9459  -11.9648   16.7262 C   0  0  0  0  0  0  0  0  0  0  0  0
    7.0936  -12.2062   17.7133 N   0  0  0  0  0  0  0  0  0  0  0  0
    8.9705  -11.7864   13.6034 C   0  0  0  0  0  0  0  0  0  0  0  0
    4.1215  -12.5260   18.3983 N   0  0  0  0  0  0  0  0  0  0  0  0
    0.7185  -10.1689   19.9947 C   0  0  0  0  0  0  0  0  0  0  0  0
    1.2440   -9.1844   19.1800 C   0  0  0  0  0  0  0  0  0  0  0  0
    2.8341   -8.3336   17.4827 C   0  0  1  0  0  0  0  0  0  0  0  0
    4.1767   -8.0525   17.7207 F   0  0  0  0  0  0  0  0  0  0  0  0
    2.8641   -8.7878   16.1987 F   0  0  0  0  0  0  0  0  0  0  0  0
   -0.4910   -9.8307   20.7570 C   0  0  0  0  0  0  0  0  0  0  0  0
   -1.4470   -9.5499   21.3845 C   0  0  0  0  0  0  0  0  0  0  0  0
   -4.8284   -8.5724   23.6278 C   0  0  0  0  0  0  0  0  0  0  0  0
   -3.6534   -7.8670   23.8868 C   0  0  0  0  0  0  0  0  0  0  0  0
   -2.5146   -8.1913   23.1271 C   0  0  0  0  0  0  0  0  0  0  0  0
   -6.1071   -8.2066   24.4077 C   0  0  0  0  0  0  0  0  0  0  0  0
    3.1088  -12.8207   19.2493 N   0  0  0  0  0  0  0  0  0  0  0  0
    3.3721  -14.2130   16.3575 N   0  0  0  0  0  0  0  0  0  0  0  0
    2.5173  -16.7504   15.7647 S   0  0  0  0  0  0  0  0  0  0  0  0
    1.2456  -16.8036   14.5695 C   0  0  0  0  0  0  0  0  0  0  0  0
    1.6815  -14.5596   14.8184 N   0  0  0  0  0  0  0  0  0  0  0  0
   -8.4133   -9.0507   24.7187 C   0  0  0  0  0  0  0  0  0  0  0  0
   -9.3388  -10.1828   24.2424 C   0  0  0  0  0  0  0  0  0  0  0  0
   -7.3350  -11.7417   24.0455 C   0  0  0  0  0  0  0  0  0  0  0  0
   -6.4601  -10.6162   24.6110 C   0  0  0  0  0  0  0  0  0  0  0  0
   -7.0520   -9.3233   24.2151 N   0  0  2  0  0  0  0  0  0  0  0  0
   -8.7154  -11.6710   26.1388 C   0  0  0  0  0  0  0  0  0  0  0  0
   -8.9901  -13.0228   26.4856 O   0  0  0  0  0  0  0  0  0  0  0  0
    5.4976  -14.0853   18.8928 H   0  0  0  0  0  0  0  0  0  0  0  0
    7.4373  -14.4337   13.0144 H   0  0  0  0  0  0  0  0  0  0  0  0
    6.4681  -12.9633   12.8464 H   0  0  0  0  0  0  0  0  0  0  0  0
    5.0110  -13.9158   14.3950 H   0  0  0  0  0  0  0  0  0  0  0  0
    6.1439  -15.2000   14.8034 H   0  0  0  0  0  0  0  0  0  0  0  0
   10.2511  -13.1509   14.9570 H   0  0  0  0  0  0  0  0  0  0  0  0
   10.1324  -13.9533   13.6310 H   0  0  0  0  0  0  0  0  0  0  0  0
    0.8655  -12.2906   22.0432 H   0  0  0  0  0  0  0  0  0  0  0  0
   -0.3302  -12.6917   20.7642 H   0  0  0  0  0  0  0  0  0  0  0  0
    1.2836  -13.4805   20.7642 H   0  0  0  0  0  0  0  0  0  0  0  0
   -9.3933  -12.3390   24.1792 H   0  0  0  0  0  0  0  0  0  0  0  0
    0.1554  -15.3199   13.4554 H   0  0  0  0  0  0  0  0  0  0  0  0
    4.7641  -10.8226   17.1578 H   0  0  0  0  0  0  0  0  0  0  0  0
   -3.8008  -10.6901   21.1816 H   0  0  0  0  0  0  0  0  0  0  0  0
   -5.9073  -10.0424   22.4989 H   0  0  0  0  0  0  0  0  0  0  0  0
    8.8275  -11.3131   16.8154 H   0  0  0  0  0  0  0  0  0  0  0  0
    9.2323  -10.8478   14.1137 H   0  0  0  0  0  0  0  0  0  0  0  0
    8.9377  -11.2522   12.6423 H   0  0  0  0  0  0  0  0  0  0  0  0
    0.7417   -8.2063   19.1477 H   0  0  0  0  0  0  0  0  0  0  0  0
    2.1548   -7.4804   17.6265 H   0  0  0  0  0  0  0  0  0  0  0  0
   -3.6183   -7.0840   24.6586 H   0  0  0  0  0  0  0  0  0  0  0  0
   -1.5518   -7.6935   23.3146 H   0  0  0  0  0  0  0  0  0  0  0  0
   -5.8778   -8.0835   25.4764 H   0  0  0  0  0  0  0  0  0  0  0  0
   -6.5341   -7.2590   24.0475 H   0  0  0  0  0  0  0  0  0  0  0  0
    3.3276  -13.2022   16.1647 H   0  0  0  0  0  0  0  0  0  0  0  0
    0.7718  -17.7179   14.1827 H   0  0  0  0  0  0  0  0  0  0  0  0
   -8.7700   -8.0877   24.3244 H   0  0  0  0  0  0  0  0  0  0  0  0
   -8.4086   -9.0013   25.8175 H   0  0  0  0  0  0  0  0  0  0  0  0
   -9.4508  -10.1218   23.1498 H   0  0  0  0  0  0  0  0  0  0  0  0
  -10.3165  -10.0701   24.7336 H   0  0  0  0  0  0  0  0  0  0  0  0
   -6.9334  -12.7190   24.3512 H   0  0  0  0  0  0  0  0  0  0  0  0
   -7.3501  -11.7050   22.9462 H   0  0  0  0  0  0  0  0  0  0  0  0
   -6.4249  -10.6884   25.7081 H   0  0  0  0  0  0  0  0  0  0  0  0
   -5.4360  -10.6995   24.2182 H   0  0  0  0  0  0  0  0  0  0  0  0
   -7.2159   -9.4131   23.2022 H   0  0  0  0  0  0  0  0  0  0  0  0
   -7.7195  -11.3858   26.5088 H   0  0  0  0  0  0  0  0  0  0  0  0
   -9.4616  -11.0016   26.5917 H   0  0  0  0  0  0  0  0  0  0  0  0
   -9.0085  -13.1135   27.4713 H   0  0  0  0  0  0  0  0  0  0  0  0
  1  2  1  0
  1  4  1  0
  1 26  1  0
  2  9  2  0
  2 39  1  0
  3  6  1  0
 21  3  1  6
  4  5  2  0
  4 24  1  0
  5  6  1  0
  5 22  1  0
  7 21  1  0
  7 25  1  0
  8 10  1  0
  8 14  1  0
  8 27  2  0
 11 39  1  0
 11 40  1  0
 11 42  2  0
 12 44  1  0
 12 45  1  0
 12 48  1  0
 13 41  2  0
 13 42  1  0
 14 15  1  0
 14 38  2  0
 15 16  2  0
 15 17  1  0
 16 26  1  0
 17 28  2  0
 17 29  1  0
 18 19  2  0
 18 33  1  0
 18 36  1  0
 19 20  1  0
 20 34  2  0
 21 22  1  0
 21 25  1  0
 22 23  1  0
 23 24  2  0
 26 38  1  0
 27 28  1  0
 27 32  1  0
 29 30  1  0
 29 31  1  0
 32 33  3  0
 34 35  1  0
 34 37  1  0
 35 36  2  0
 47 37  1  0
 40 41  1  0
 43 44  1  0
 43 47  1  0
 45 46  1  0
 46 47  1  0
 48 49  1  0
  1 50  1  1
  3 51  1  0
  3 52  1  0
  6 53  1  0
  6 54  1  0
  7 55  1  0
  7 56  1  0
 10 57  1  0
 10 58  1  0
 10 59  1  0
 12 60  1  6
 13 61  1  0
 16 62  1  0
 19 63  1  0
 20 64  1  0
 23 65  1  0
 25 66  1  0
 25 67  1  0
 28 68  1  0
 29 69  1  6
 35 70  1  0
 36 71  1  0
 37 72  1  0
 37 73  1  0
 39 74  1  0
 41 75  1  0
 43 76  1  0
 43 77  1  0
 44 78  1  0
 44 79  1  0
 45 80  1  0
 45 81  1  0
 46 82  1  0
 46 83  1  0
 47 84  1  6
 48 85  1  0
 48 86  1  0
 49 87  1  0
M  CHG  1  47   1
M  END
>  <filename_input>  (9) 
8A2D_KXY_docked.sdf

>  <pdb_id>  (9) 
8A2D_KXY

>  <pose_rank>  (9) 
8

>  <num_atoms_heavy>  (9) 
49

>  <num_torsions>  (9) 
9

>  <pose>  (9) 
[1.2928984126411043, -11.416249910104687, 20.108146272922585, 1.3485940774530185, 3.0393909729062405, 0.12299451892756726, -0.1520444768367751, 2.719154640857975, -0.3073808085965671, -4.330880378102893, -0.340854711723169, -0.8491394539102236, -0.5181639889461498, 0.1950256466546628, 3.266185302669507]

>  <energy>  (9) 
-543.1909043365981

>  <inter_energy>  (9) 
-627.8754286362866

>  <intra_energy>  (9) 
82.02945519990209

>  <rmsd>  (9) 
14.0903

>  <sdf_rank>  (9) 
0

$$$$

     RDKit          3D

 87 94  0  0  0  0  0  0  0  0999 V2000
    4.5237  -10.6955   16.7085 C   0  0  1  0  0  0  0  0  0  0  0  0
    4.4917  -11.1596   15.2973 C   0  0  0  0  0  0  0  0  0  0  0  0
    2.7630   -6.5851   14.8450 C   0  0  0  0  0  0  0  0  0  0  0  0
    4.5639   -9.2102   16.8234 C   0  0  0  0  0  0  0  0  0  0  0  0
    3.9506   -8.3076   16.0684 C   0  0  0  0  0  0  0  0  0  0  0  0
    3.0270   -8.0884   14.8556 C   0  0  0  0  0  0  0  0  0  0  0  0
    4.7166   -4.8543   15.3590 C   0  0  0  0  0  0  0  0  0  0  0  0
    0.2579  -10.7155   18.9746 C   0  0  0  0  0  0  0  0  0  0  0  0
    5.4814  -11.1246   14.5584 O   0  0  0  0  0  0  0  0  0  0  0  0
   -0.1656   -9.2487   18.8158 C   0  0  0  0  0  0  0  0  0  0  0  0
    3.1543  -12.1914   13.6037 C   0  0  0  0  0  0  0  0  0  0  0  0
   -8.6388   -5.5536   23.2556 C   0  0  1  0  0  0  0  0  0  0  0  0
    2.0246  -13.1538   11.9336 C   0  0  0  0  0  0  0  0  0  0  0  0
    1.4711  -11.0971   18.4593 C   0  0  0  0  0  0  0  0  0  0  0  0
    1.9441  -12.4388   18.5671 C   0  0  0  0  0  0  0  0  0  0  0  0
    3.1546  -12.4811   17.8845 C   0  0  0  0  0  0  0  0  0  0  0  0
    1.1553  -13.4261   19.2653 C   0  0  0  0  0  0  0  0  0  0  0  0
   -4.0422  -10.6288   21.3996 C   0  0  0  0  0  0  0  0  0  0  0  0
   -5.1599  -11.2144   20.8597 C   0  0  0  0  0  0  0  0  0  0  0  0
   -6.4321  -10.8982   21.4374 C   0  0  0  0  0  0  0  0  0  0  0  0
    3.7819   -5.9824   15.7981 C   0  0  2  0  0  0  0  0  0  0  0  0
    4.3045   -7.0601   16.5387 N   0  0  0  0  0  0  0  0  0  0  0  0
    5.1310   -7.2755   17.5660 C   0  0  0  0  0  0  0  0  0  0  0  0
    5.3085   -8.5715   17.7848 N   0  0  0  0  0  0  0  0  0  0  0  0
    3.6099   -4.5924   16.4167 C   0  0  0  0  0  0  0  0  0  0  0  0
    3.3283  -11.2284   17.4042 N   0  0  0  0  0  0  0  0  0  0  0  0
   -0.4586  -11.6613   19.6751 C   0  0  0  0  0  0  0  0  0  0  0  0
   -0.0276  -12.9675   19.8064 C   0  0  0  0  0  0  0  0  0  0  0  0
    1.6199  -14.7931   19.5127 C   0  0  1  0  0  0  0  0  0  0  0  0
    1.7743  -15.4683   18.3052 F   0  0  0  0  0  0  0  0  0  0  0  0
    2.8895  -14.8039   20.0066 F   0  0  0  0  0  0  0  0  0  0  0  0
   -1.7355  -11.3114   20.3120 C   0  0  0  0  0  0  0  0  0  0  0  0
   -2.7537  -11.0084   20.8197 C   0  0  0  0  0  0  0  0  0  0  0  0
   -6.4482  -10.0990   22.5359 C   0  0  0  0  0  0  0  0  0  0  0  0
   -5.3097   -9.5401   23.1160 C   0  0  0  0  0  0  0  0  0  0  0  0
   -4.0644   -9.8408   22.5347 C   0  0  0  0  0  0  0  0  0  0  0  0
   -7.8324   -9.7488   23.1178 C   0  0  0  0  0  0  0  0  0  0  0  0
    2.3492  -10.3566   17.7476 N   0  0  0  0  0  0  0  0  0  0  0  0
    3.3126  -11.6621   14.8476 N   0  0  0  0  0  0  0  0  0  0  0  0
    4.3418  -12.2311   12.3701 S   0  0  0  0  0  0  0  0  0  0  0  0
    3.1990  -12.9907   11.2906 C   0  0  0  0  0  0  0  0  0  0  0  0
    2.0103  -12.6880   13.2354 N   0  0  0  0  0  0  0  0  0  0  0  0
   -8.7154   -7.8156   24.3869 C   0  0  0  0  0  0  0  0  0  0  0  0
   -8.4693   -6.3102   24.5830 C   0  0  0  0  0  0  0  0  0  0  0  0
   -7.7134   -6.1153   22.1593 C   0  0  0  0  0  0  0  0  0  0  0  0
   -8.0586   -7.5986   21.9788 C   0  0  0  0  0  0  0  0  0  0  0  0
   -7.8655   -8.2819   23.2728 N   0  0  2  0  0  0  0  0  0  0  0  0
  -10.0966   -5.6771   22.8080 C   0  0  0  0  0  0  0  0  0  0  0  0
  -10.6805   -4.3806   22.8464 O   0  0  0  0  0  0  0  0  0  0  0  0
    5.4475  -11.0700   17.1736 H   0  0  0  0  0  0  0  0  0  0  0  0
    2.8985   -6.1790   13.8317 H   0  0  0  0  0  0  0  0  0  0  0  0
    1.7326   -6.3515   15.1511 H   0  0  0  0  0  0  0  0  0  0  0  0
    2.0874   -8.6476   14.9760 H   0  0  0  0  0  0  0  0  0  0  0  0
    3.4780   -8.4412   13.9164 H   0  0  0  0  0  0  0  0  0  0  0  0
    5.7746   -4.8666   15.6598 H   0  0  0  0  0  0  0  0  0  0  0  0
    4.9975   -4.4041   14.3955 H   0  0  0  0  0  0  0  0  0  0  0  0
   -0.2965   -8.7953   19.8095 H   0  0  0  0  0  0  0  0  0  0  0  0
    0.6111   -8.7007   18.2622 H   0  0  0  0  0  0  0  0  0  0  0  0
   -1.1147   -9.1990   18.2622 H   0  0  0  0  0  0  0  0  0  0  0  0
   -8.3668   -4.4996   23.4138 H   0  0  0  0  0  0  0  0  0  0  0  0
    1.1482  -13.6203   11.4601 H   0  0  0  0  0  0  0  0  0  0  0  0
    3.8248  -13.3447   17.7617 H   0  0  0  0  0  0  0  0  0  0  0  0
   -5.0811  -11.9063   20.0083 H   0  0  0  0  0  0  0  0  0  0  0  0
   -7.3651  -11.2897   21.0059 H   0  0  0  0  0  0  0  0  0  0  0  0
    5.6050   -6.4776   18.1565 H   0  0  0  0  0  0  0  0  0  0  0  0
    3.8819   -4.4192   17.4683 H   0  0  0  0  0  0  0  0  0  0  0  0
    2.7781   -3.8795   16.5167 H   0  0  0  0  0  0  0  0  0  0  0  0
   -0.6566  -13.6739   20.3681 H   0  0  0  0  0  0  0  0  0  0  0  0
    0.8833  -15.2399   20.1967 H   0  0  0  0  0  0  0  0  0  0  0  0
   -5.3829   -8.8865   23.9977 H   0  0  0  0  0  0  0  0  0  0  0  0
   -3.1309   -9.4581   22.9731 H   0  0  0  0  0  0  0  0  0  0  0  0
   -8.6267  -10.0759   22.4308 H   0  0  0  0  0  0  0  0  0  0  0  0
   -7.9969  -10.2534   24.0813 H   0  0  0  0  0  0  0  0  0  0  0  0
    2.4988  -11.6415   15.4785 H   0  0  0  0  0  0  0  0  0  0  0  0
    3.4041  -13.2887   10.2517 H   0  0  0  0  0  0  0  0  0  0  0  0
   -8.4537   -8.3584   25.3071 H   0  0  0  0  0  0  0  0  0  0  0  0
   -9.7755   -8.0003   24.1586 H   0  0  0  0  0  0  0  0  0  0  0  0
   -7.4464   -6.1575   24.9575 H   0  0  0  0  0  0  0  0  0  0  0  0
   -9.2026   -5.9237   25.3061 H   0  0  0  0  0  0  0  0  0  0  0  0
   -7.8776   -5.5741   21.2158 H   0  0  0  0  0  0  0  0  0  0  0  0
   -6.6579   -5.9955   22.4449 H   0  0  0  0  0  0  0  0  0  0  0  0
   -9.1057   -7.7000   21.6576 H   0  0  0  0  0  0  0  0  0  0  0  0
   -7.4089   -8.0477   21.2132 H   0  0  0  0  0  0  0  0  0  0  0  0
   -6.9290   -7.9867   23.5841 H   0  0  0  0  0  0  0  0  0  0  0  0
  -10.1398   -6.0755   21.7836 H   0  0  0  0  0  0  0  0  0  0  0  0
  -10.6434   -6.3618   23.4729 H   0  0  0  0  0  0  0  0  0  0  0  0
  -10.8057   -4.1028   23.7883 H   0  0  0  0  0  0  0  0  0  0  0  0
  1  2  1  0
  1  4  1  0
  1 26  1  0
  2  9  2  0
  2 39  1  0
  3  6  1  0
 21  3  1  6
  4  5  2  0
  4 24  1  0
  5  6  1  0
  5 22  1  0
  7 21  1  0
  7 25  1  0
  8 10  1  0
  8 14  1  0
  8 27  2  0
 11 39  1  0
 11 40  1  0
 11 42  2  0
 12 44  1  0
 12 45  1  0
 12 48  1  0
 13 41  2  0
 13 42  1  0
 14 15  1  0
 14 38  2  0
 15 16  2  0
 15 17  1  0
 16 26  1  0
 17 28  2  0
 17 29  1  0
 18 19  2  0
 18 33  1  0
 18 36  1  0
 19 20  1  0
 20 34  2  0
 21 22  1  0
 21 25  1  0
 22 23  1  0
 23 24  2  0
 26 38  1  0
 27 28  1  0
 27 32  1  0
 29 30  1  0
 29 31  1  0
 32 33  3  0
 34 35  1  0
 34 37  1  0
 35 36  2  0
 47 37  1  0
 40 41  1  0
 43 44  1  0
 43 47  1  0
 45 46  1  0
 46 47  1  0
 48 49  1  0
  1 50  1  1
  3 51  1  0
  3 52  1  0
  6 53  1  0
  6 54  1  0
  7 55  1  0
  7 56  1  0
 10 57  1  0
 10 58  1  0
 10 59  1  0
 12 60  1  1
 13 61  1  0
 16 62  1  0
 19 63  1  0
 20 64  1  0
 23 65  1  0
 25 66  1  0
 25 67  1  0
 28 68  1  0
 29 69  1  1
 35 70  1  0
 36 71  1  0
 37 72  1  0
 37 73  1  0
 39 74  1  0
 41 75  1  0
 43 76  1  0
 43 77  1  0
 44 78  1  0
 44 79  1  0
 45 80  1  0
 45 81  1  0
 46 82  1  0
 46 83  1  0
 47 84  1  1
 48 85  1  0
 48 86  1  0
 49 87  1  0
M  CHG  1  47   1
M  END
>  <filename_input>  (10) 
8A2D_KXY_docked.sdf

>  <pdb_id>  (10) 
8A2D_KXY

>  <pose_rank>  (10) 
9

>  <num_atoms_heavy>  (10) 
49

>  <num_torsions>  (10) 
9

>  <pose>  (10) 
[0.25793312625508347, -10.715536196044082, 18.974582013229206, 1.095968094182481, -0.8470666145331383, 3.060121030283167, -0.25267441728081913, 0.7918343024154555, -1.6255203284361857, -0.6227133753713635, 0.027202232348462047, -1.378448059610151, 9.050771162189136, 0.7396860179663678, -3.5272617263866874]

>  <energy>  (10) 
-619.3149345411358

>  <inter_energy>  (10) 
-649.1873157936816

>  <intra_energy>  (10) 
31.930991467067447

>  <rmsd>  (10) 
13.5015

>  <sdf_rank>  (10) 
0

$$$$

     RDKit          3D

 87 94  0  0  0  0  0  0  0  0999 V2000
   -6.8391   -9.4428   24.6906 C   0  0  1  0  0  0  0  0  0  0  0  0
   -7.6950   -8.2361   24.5522 C   0  0  0  0  0  0  0  0  0  0  0  0
  -10.0424  -12.8734   23.4913 C   0  0  0  0  0  0  0  0  0  0  0  0
   -7.5885  -10.6214   25.2105 C   0  0  0  0  0  0  0  0  0  0  0  0
   -8.4920  -11.3657   24.5854 C   0  0  0  0  0  0  0  0  0  0  0  0
   -9.2769  -11.5705   23.2762 C   0  0  0  0  0  0  0  0  0  0  0  0
  -11.1927  -13.4086   25.8294 C   0  0  0  0  0  0  0  0  0  0  0  0
   -6.5761  -10.0760   19.9092 C   0  0  0  0  0  0  0  0  0  0  0  0
   -8.2126   -7.6677   25.5195 O   0  0  0  0  0  0  0  0  0  0  0  0
   -7.9540   -9.5626   19.4690 C   0  0  0  0  0  0  0  0  0  0  0  0
   -8.5637   -6.6149   23.0229 C   0  0  0  0  0  0  0  0  0  0  0  0
  -10.8345   -8.9022   10.7947 C   0  0  1  0  0  0  0  0  0  0  0  0
   -9.4351   -5.0303   21.7108 C   0  0  0  0  0  0  0  0  0  0  0  0
   -6.2840  -10.0738   21.2499 C   0  0  0  0  0  0  0  0  0  0  0  0
   -5.0294  -10.5383   21.7457 C   0  0  0  0  0  0  0  0  0  0  0  0
   -5.0521  -10.3291   23.1200 C   0  0  0  0  0  0  0  0  0  0  0  0
   -4.0431  -11.0619   20.8305 C   0  0  0  0  0  0  0  0  0  0  0  0
   -6.3188  -10.8570   15.0122 C   0  0  0  0  0  0  0  0  0  0  0  0
   -7.3546  -11.6458   14.5780 C   0  0  0  0  0  0  0  0  0  0  0  0
   -7.6085  -11.7096   13.1696 C   0  0  0  0  0  0  0  0  0  0  0  0
   -9.9446  -13.1664   24.9794 C   0  0  2  0  0  0  0  0  0  0  0  0
   -8.9277  -12.3269   25.4736 N   0  0  0  0  0  0  0  0  0  0  0  0
   -8.2596  -12.1076   26.6094 C   0  0  0  0  0  0  0  0  0  0  0  0
   -7.4221  -11.0859   26.4924 N   0  0  0  0  0  0  0  0  0  0  0  0
  -10.1870  -14.5615   25.5620 C   0  0  0  0  0  0  0  0  0  0  0  0
   -6.2525   -9.7557   23.3659 N   0  0  0  0  0  0  0  0  0  0  0  0
   -5.6396  -10.6203   19.0576 C   0  0  0  0  0  0  0  0  0  0  0  0
   -4.4178  -11.0868   19.5033 C   0  0  0  0  0  0  0  0  0  0  0  0
   -2.7787  -11.6566   21.2703 C   0  0  1  0  0  0  0  0  0  0  0  0
   -2.2675  -12.4793   20.2704 F   0  0  0  0  0  0  0  0  0  0  0  0
   -1.8017  -10.7146   21.3879 F   0  0  0  0  0  0  0  0  0  0  0  0
   -5.9071  -10.7180   17.6163 C   0  0  0  0  0  0  0  0  0  0  0  0
   -6.1147  -10.7741   16.4586 C   0  0  0  0  0  0  0  0  0  0  0  0
   -6.8586  -10.9231   12.3542 C   0  0  0  0  0  0  0  0  0  0  0  0
   -5.8362  -10.0842   12.7969 C   0  0  0  0  0  0  0  0  0  0  0  0
   -5.5804  -10.0378   14.1795 C   0  0  0  0  0  0  0  0  0  0  0  0
   -7.1310  -11.0354   10.8408 C   0  0  0  0  0  0  0  0  0  0  0  0
   -7.0359   -9.6056   22.2703 N   0  0  0  0  0  0  0  0  0  0  0  0
   -7.8683   -7.7529   23.2946 N   0  0  0  0  0  0  0  0  0  0  0  0
   -9.4137   -5.6606   24.1631 S   0  0  0  0  0  0  0  0  0  0  0  0
   -9.9346   -4.5918   22.8845 C   0  0  0  0  0  0  0  0  0  0  0  0
   -8.6721   -6.1799   21.8022 N   0  0  0  0  0  0  0  0  0  0  0  0
   -8.3360   -8.9022   11.1945 C   0  0  0  0  0  0  0  0  0  0  0  0
   -9.5290   -8.1053   10.6406 C   0  0  0  0  0  0  0  0  0  0  0  0
  -10.7419  -10.2815   10.1144 C   0  0  0  0  0  0  0  0  0  0  0  0
   -9.5733  -11.0369   10.7591 C   0  0  0  0  0  0  0  0  0  0  0  0
   -8.3446  -10.2410   10.5710 N   0  0  2  0  0  0  0  0  0  0  0  0
  -11.1194   -9.0853   12.2867 C   0  0  0  0  0  0  0  0  0  0  0  0
  -12.5120   -9.3295   12.4426 O   0  0  0  0  0  0  0  0  0  0  0  0
   -6.0514   -9.2240   25.4265 H   0  0  0  0  0  0  0  0  0  0  0  0
  -11.0942  -12.7542   23.1921 H   0  0  0  0  0  0  0  0  0  0  0  0
   -9.6262  -13.6934   22.8877 H   0  0  0  0  0  0  0  0  0  0  0  0
   -8.5908  -11.6590   22.4210 H   0  0  0  0  0  0  0  0  0  0  0  0
   -9.9437  -10.7251   23.0509 H   0  0  0  0  0  0  0  0  0  0  0  0
  -11.2700  -12.9664   26.8336 H   0  0  0  0  0  0  0  0  0  0  0  0
  -12.2741  -13.2673   25.6858 H   0  0  0  0  0  0  0  0  0  0  0  0
   -8.5619   -9.3361   20.3574 H   0  0  0  0  0  0  0  0  0  0  0  0
   -7.8303   -8.6502   18.8671 H   0  0  0  0  0  0  0  0  0  0  0  0
   -8.4574  -10.3335   18.8671 H   0  0  0  0  0  0  0  0  0  0  0  0
  -11.6475   -8.3440   10.3075 H   0  0  0  0  0  0  0  0  0  0  0  0
   -9.6201   -4.5146   20.7570 H   0  0  0  0  0  0  0  0  0  0  0  0
   -4.2657  -10.5760   23.8485 H   0  0  0  0  0  0  0  0  0  0  0  0
   -7.9718  -12.2125   15.2907 H   0  0  0  0  0  0  0  0  0  0  0  0
   -8.3850  -12.3735   12.7617 H   0  0  0  0  0  0  0  0  0  0  0  0
   -8.3880  -12.7004   27.5271 H   0  0  0  0  0  0  0  0  0  0  0  0
   -9.5500  -14.9375   26.3761 H   0  0  0  0  0  0  0  0  0  0  0  0
  -10.2568  -15.5788   25.1495 H   0  0  0  0  0  0  0  0  0  0  0  0
   -3.7117  -11.4967   18.7662 H   0  0  0  0  0  0  0  0  0  0  0  0
   -3.0034  -12.1708   22.2164 H   0  0  0  0  0  0  0  0  0  0  0  0
   -5.2499   -9.4796   12.0893 H   0  0  0  0  0  0  0  0  0  0  0  0
   -4.8113   -9.3657   14.5878 H   0  0  0  0  0  0  0  0  0  0  0  0
   -6.2800  -10.6338   10.2712 H   0  0  0  0  0  0  0  0  0  0  0  0
   -7.2681  -12.0843   10.5391 H   0  0  0  0  0  0  0  0  0  0  0  0
   -7.4533   -8.2730   22.5083 H   0  0  0  0  0  0  0  0  0  0  0  0
  -10.5688   -3.7026   23.0152 H   0  0  0  0  0  0  0  0  0  0  0  0
   -7.3968   -8.3841   10.9505 H   0  0  0  0  0  0  0  0  0  0  0  0
   -8.4146   -8.9923   12.2879 H   0  0  0  0  0  0  0  0  0  0  0  0
   -9.3585   -7.8945    9.5745 H   0  0  0  0  0  0  0  0  0  0  0  0
   -9.6195   -7.1661   11.2061 H   0  0  0  0  0  0  0  0  0  0  0  0
  -11.6783  -10.8384   10.2660 H   0  0  0  0  0  0  0  0  0  0  0  0
  -10.5802  -10.1691    9.0321 H   0  0  0  0  0  0  0  0  0  0  0  0
   -9.7667  -11.1738   11.8332 H   0  0  0  0  0  0  0  0  0  0  0  0
   -9.4585  -12.0261   10.2917 H   0  0  0  0  0  0  0  0  0  0  0  0
   -8.3391  -10.0066    9.5680 H   0  0  0  0  0  0  0  0  0  0  0  0
  -10.5451   -9.9397   12.6742 H   0  0  0  0  0  0  0  0  0  0  0  0
  -10.8252   -8.1842   12.8449 H   0  0  0  0  0  0  0  0  0  0  0  0
  -12.7344   -9.3685   13.4065 H   0  0  0  0  0  0  0  0  0  0  0  0
  1  2  1  0
  1  4  1  0
  1 26  1  0
  2  9  2  0
  2 39  1  0
  3  6  1  0
 21  3  1  6
  4  5  2  0
  4 24  1  0
  5  6  1  0
  5 22  1  0
  7 21  1  0
  7 25  1  0
  8 10  1  0
  8 14  1  0
  8 27  2  0
 11 39  1  0
 11 40  1  0
 11 42  2  0
 12 44  1  0
 12 45  1  0
 12 48  1  0
 13 41  2  0
 13 42  1  0
 14 15  1  0
 14 38  2  0
 15 16  2  0
 15 17  1  0
 16 26  1  0
 17 28  2  0
 17 29  1  0
 18 19  2  0
 18 33  1  0
 18 36  1  0
 19 20  1  0
 20 34  2  0
 21 22  1  0
 21 25  1  0
 22 23  1  0
 23 24  2  0
 26 38  1  0
 27 28  1  0
 27 32  1  0
 29 30  1  0
 29 31  1  0
 32 33  3  0
 34 35  1  0
 34 37  1  0
 35 36  2  0
 47 37  1  0
 40 41  1  0
 43 44  1  0
 43 47  1  0
 45 46  1  0
 46 47  1  0
 48 49  1  0
  1 50  1  1
  3 51  1  0
  3 52  1  0
  6 53  1  0
  6 54  1  0
  7 55  1  0
  7 56  1  0
 10 57  1  0
 10 58  1  0
 10 59  1  0
 12 60  1  6
 13 61  1  0
 16 62  1  0
 19 63  1  0
 20 64  1  0
 23 65  1  0
 25 66  1  0
 25 67  1  0
 28 68  1  0
 29 69  1  1
 35 70  1  0
 36 71  1  0
 37 72  1  0
 37 73  1  0
 39 74  1  0
 41 75  1  0
 43 76  1  0
 43 77  1  0
 44 78  1  0
 44 79  1  0
 45 80  1  0
 45 81  1  0
 46 82  1  0
 46 83  1  0
 47 84  1  6
 48 85  1  0
 48 86  1  0
 49 87  1  0
M  CHG  1  47   1
M  END
>  <filename_input>  (11) 
8A2D_KXY_docked.sdf

>  <pdb_id>  (11) 
8A2D_KXY

>  <pose_rank>  (11) 
10

>  <num_atoms_heavy>  (11) 
49

>  <num_torsions>  (11) 
9

>  <pose>  (11) 
[-6.576129924779615, -10.075996792928485, 19.90920651937392, -2.8020656874703587, -2.6386865284098566, 2.819047206688006, -2.6326888667512605, -3.793117071524298, -0.11715282815769783, -3.2682686677844854, 3.4622701353606544, -0.62547768994951, -2.2948014929437037, 1.355268228954676, 8.878890005950758]

>  <energy>  (11) 
-576.2439397314944

>  <inter_energy>  (11) 
-670.422382256899

>  <intra_energy>  (11) 
97.4321307978745

>  <rmsd>  (11) 
9.72864

>  <sdf_rank>  (11) 
0

$$$$

     RDKit          3D

 87 94  0  0  0  0  0  0  0  0999 V2000
   -6.2530  -10.3830   21.7540 C   0  0  1  0  0  0  0  0  0  0  0  0
   -6.7969   -9.0134   21.9445 C   0  0  0  0  0  0  0  0  0  0  0  0
   -5.9744  -10.6930   16.9276 C   0  0  0  0  0  0  0  0  0  0  0  0
   -6.8240  -11.0662   20.5590 C   0  0  0  0  0  0  0  0  0  0  0  0
   -6.5336  -10.8698   19.2792 C   0  0  0  0  0  0  0  0  0  0  0  0
   -5.6873  -10.0543   18.2838 C   0  0  0  0  0  0  0  0  0  0  0  0
   -8.4390  -11.4487   16.2710 C   0  0  0  0  0  0  0  0  0  0  0  0
   -1.7516  -11.5473   20.4447 C   0  0  0  0  0  0  0  0  0  0  0  0
   -6.5574   -8.0836   21.1667 O   0  0  0  0  0  0  0  0  0  0  0  0
   -2.0172  -12.7235   19.4949 C   0  0  0  0  0  0  0  0  0  0  0  0
   -8.2382   -7.6451   23.2756 C   0  0  0  0  0  0  0  0  0  0  0  0
    9.6127  -15.1668   20.0431 C   0  0  1  0  0  0  0  0  0  0  0  0
   -9.5584   -6.2557   24.4240 C   0  0  0  0  0  0  0  0  0  0  0  0
   -2.8282  -10.9510   21.0514 C   0  0  0  0  0  0  0  0  0  0  0  0
   -2.6710   -9.8555   21.9519 C   0  0  0  0  0  0  0  0  0  0  0  0
   -3.9542   -9.4636   22.3163 C   0  0  0  0  0  0  0  0  0  0  0  0
   -1.3491   -9.3721   22.2732 C   0  0  0  0  0  0  0  0  0  0  0  0
    2.8924  -12.7976   19.2134 C   0  0  0  0  0  0  0  0  0  0  0  0
    2.7485  -13.9001   18.4089 C   0  0  0  0  0  0  0  0  0  0  0  0
    3.9248  -14.4529   17.8063 C   0  0  0  0  0  0  0  0  0  0  0  0
   -7.1883  -11.5822   17.1410 C   0  0  2  0  0  0  0  0  0  0  0  0
   -7.3312  -11.7146   18.5357 N   0  0  0  0  0  0  0  0  0  0  0  0
   -8.0787  -12.3846   19.4171 C   0  0  0  0  0  0  0  0  0  0  0  0
   -7.7951  -12.0319   20.6638 N   0  0  0  0  0  0  0  0  0  0  0  0
   -7.5532  -12.7215   16.1854 C   0  0  0  0  0  0  0  0  0  0  0  0
   -4.7788  -10.2888   21.6313 N   0  0  0  0  0  0  0  0  0  0  0  0
   -0.4972  -11.1003   20.7986 C   0  0  0  0  0  0  0  0  0  0  0  0
   -0.3070  -10.0476   21.6731 C   0  0  0  0  0  0  0  0  0  0  0  0
   -1.0988   -8.3271   23.2687 C   0  0  1  0  0  0  0  0  0  0  0  0
   -0.9842   -8.8946   24.5348 F   0  0  0  0  0  0  0  0  0  0  0  0
    0.1302   -7.7644   23.0992 F   0  0  0  0  0  0  0  0  0  0  0  0
    0.7064  -11.7325   20.2416 C   0  0  0  0  0  0  0  0  0  0  0  0
    1.6679  -12.2271   19.7753 C   0  0  0  0  0  0  0  0  0  0  0  0
    5.1023  -13.8047   18.0040 C   0  0  0  0  0  0  0  0  0  0  0  0
    5.2445  -12.6564   18.7827 C   0  0  0  0  0  0  0  0  0  0  0  0
    4.0886  -12.1273   19.3852 C   0  0  0  0  0  0  0  0  0  0  0  0
    6.3570  -14.4389   17.3711 C   0  0  0  0  0  0  0  0  0  0  0  0
   -4.1416  -11.2158   20.8755 N   0  0  0  0  0  0  0  0  0  0  0  0
   -7.6097   -8.8241   23.0162 N   0  0  0  0  0  0  0  0  0  0  0  0
   -8.0513   -6.1909   22.3903 S   0  0  0  0  0  0  0  0  0  0  0  0
   -9.1423   -5.3802   23.4862 C   0  0  0  0  0  0  0  0  0  0  0  0
   -9.0313   -7.5281   24.2995 N   0  0  0  0  0  0  0  0  0  0  0  0
    8.7154  -14.0025   17.9836 C   0  0  0  0  0  0  0  0  0  0  0  0
    9.6157  -13.8666   19.2230 C   0  0  0  0  0  0  0  0  0  0  0  0
    8.1852  -15.5767   20.4530 C   0  0  0  0  0  0  0  0  0  0  0  0
    7.3678  -15.7518   19.1673 C   0  0  0  0  0  0  0  0  0  0  0  0
    7.3882  -14.4758   18.4257 N   0  0  2  0  0  0  0  0  0  0  0  0
   10.2413  -16.2765   19.1979 C   0  0  0  0  0  0  0  0  0  0  0  0
   10.8427  -17.2157   20.0808 O   0  0  0  0  0  0  0  0  0  0  0  0
   -6.5358  -10.9905   22.6263 H   0  0  0  0  0  0  0  0  0  0  0  0
   -6.1932   -9.9187   16.1775 H   0  0  0  0  0  0  0  0  0  0  0  0
   -5.1114  -11.2659   16.5575 H   0  0  0  0  0  0  0  0  0  0  0  0
   -4.6178  -10.1285   18.5302 H   0  0  0  0  0  0  0  0  0  0  0  0
   -5.9348   -8.9827   18.3030 H   0  0  0  0  0  0  0  0  0  0  0  0
   -9.4376  -11.5018   16.7293 H   0  0  0  0  0  0  0  0  0  0  0  0
   -8.8118  -10.7074   15.5488 H   0  0  0  0  0  0  0  0  0  0  0  0
   -2.2220  -13.6304   20.0827 H   0  0  0  0  0  0  0  0  0  0  0  0
   -2.8860  -12.4936   18.8607 H   0  0  0  0  0  0  0  0  0  0  0  0
   -1.1339  -12.8893   18.8607 H   0  0  0  0  0  0  0  0  0  0  0  0
   10.1903  -15.0032   20.9648 H   0  0  0  0  0  0  0  0  0  0  0  0
  -10.2609   -5.9796   25.2241 H   0  0  0  0  0  0  0  0  0  0  0  0
   -4.2371   -8.6584   23.0102 H   0  0  0  0  0  0  0  0  0  0  0  0
    1.7587  -14.3464   18.2319 H   0  0  0  0  0  0  0  0  0  0  0  0
    3.8762  -15.3717   17.2035 H   0  0  0  0  0  0  0  0  0  0  0  0
   -8.8348  -13.1351   19.1432 H   0  0  0  0  0  0  0  0  0  0  0  0
   -7.9225  -13.6782   16.5834 H   0  0  0  0  0  0  0  0  0  0  0  0
   -7.0353  -13.2598   15.3780 H   0  0  0  0  0  0  0  0  0  0  0  0
    0.7224   -9.7340   21.9012 H   0  0  0  0  0  0  0  0  0  0  0  0
   -1.9247   -7.6084   23.1618 H   0  0  0  0  0  0  0  0  0  0  0  0
    6.2267  -12.1808   18.9209 H   0  0  0  0  0  0  0  0  0  0  0  0
    4.1359  -11.2024   19.9788 H   0  0  0  0  0  0  0  0  0  0  0  0
    6.1330  -15.4582   17.0235 H   0  0  0  0  0  0  0  0  0  0  0  0
    6.6993  -13.8584   16.5017 H   0  0  0  0  0  0  0  0  0  0  0  0
   -7.7575   -9.6110   23.6641 H   0  0  0  0  0  0  0  0  0  0  0  0
   -9.4424   -4.3238   23.4220 H   0  0  0  0  0  0  0  0  0  0  0  0
    8.6159  -13.0260   17.4870 H   0  0  0  0  0  0  0  0  0  0  0  0
    9.1551  -14.7164   17.2716 H   0  0  0  0  0  0  0  0  0  0  0  0
    9.2441  -13.0432   19.8505 H   0  0  0  0  0  0  0  0  0  0  0  0
   10.6442  -13.6603   18.8916 H   0  0  0  0  0  0  0  0  0  0  0  0
    8.2125  -16.5234   21.0124 H   0  0  0  0  0  0  0  0  0  0  0  0
    7.7324  -14.8093   21.0981 H   0  0  0  0  0  0  0  0  0  0  0  0
    7.8113  -16.5473   18.5504 H   0  0  0  0  0  0  0  0  0  0  0  0
    6.3323  -16.0304   19.4124 H   0  0  0  0  0  0  0  0  0  0  0  0
    7.1335  -13.7651   19.1265 H   0  0  0  0  0  0  0  0  0  0  0  0
    9.4650  -16.7731   18.5973 H   0  0  0  0  0  0  0  0  0  0  0  0
   10.9954  -15.8564   18.5162 H   0  0  0  0  0  0  0  0  0  0  0  0
   10.6698  -16.9457   21.0175 H   0  0  0  0  0  0  0  0  0  0  0  0
  1  2  1  0
  1  4  1  0
  1 26  1  0
  2  9  2  0
  2 39  1  0
  3  6  1  0
 21  3  1  1
  4  5  2  0
  4 24  1  0
  5  6  1  0
  5 22  1  0
  7 21  1  0
  7 25  1  0
  8 10  1  0
  8 14  1  0
  8 27  2  0
 11 39  1  0
 11 40  1  0
 11 42  2  0
 12 44  1  0
 12 45  1  0
 12 48  1  0
 13 41  2  0
 13 42  1  0
 14 15  1  0
 14 38  2  0
 15 16  2  0
 15 17  1  0
 16 26  1  0
 17 28  2  0
 17 29  1  0
 18 19  2  0
 18 33  1  0
 18 36  1  0
 19 20  1  0
 20 34  2  0
 21 22  1  0
 21 25  1  0
 22 23  1  0
 23 24  2  0
 26 38  1  0
 27 28  1  0
 27 32  1  0
 29 30  1  0
 29 31  1  0
 32 33  3  0
 34 35  1  0
 34 37  1  0
 35 36  2  0
 47 37  1  0
 40 41  1  0
 43 44  1  0
 43 47  1  0
 45 46  1  0
 46 47  1  0
 48 49  1  0
  1 50  1  1
  3 51  1  0
  3 52  1  0
  6 53  1  0
  6 54  1  0
  7 55  1  0
  7 56  1  0
 10 57  1  0
 10 58  1  0
 10 59  1  0
 12 60  1  1
 13 61  1  0
 16 62  1  0
 19 63  1  0
 20 64  1  0
 23 65  1  0
 25 66  1  0
 25 67  1  0
 28 68  1  0
 29 69  1  1
 35 70  1  0
 36 71  1  0
 37 72  1  0
 37 73  1  0
 39 74  1  0
 41 75  1  0
 43 76  1  0
 43 77  1  0
 44 78  1  0
 44 79  1  0
 45 80  1  0
 45 81  1  0
 46 82  1  0
 46 83  1  0
 47 84  1  1
 48 85  1  0
 48 86  1  0
 49 87  1  0
M  CHG  1  47   1
M  END
>  <filename_input>  (12) 
8A2D_KXY_docked.sdf

>  <pdb_id>  (12) 
8A2D_KXY

>  <pose_rank>  (12) 
11

>  <num_atoms_heavy>  (12) 
49

>  <num_torsions>  (12) 
9

>  <pose>  (12) 
[-1.7515857115526037, -11.547306438294765, 20.444697628779533, -2.0634718072203797, -2.6436340320432556, -5.270692340743509, 2.3918944835938403, -3.864837847055524, 0.956649837378354, -0.6652532145945147, 0.306414008628194, -0.7350290844195524, 2.0571700066059013, 1.4240739634737596, 0.2808028699221287]

>  <energy>  (12) 
-609.5144716078222

>  <inter_energy>  (12) 
-646.1187997959022

>  <intra_energy>  (12) 
34.953845822038105

>  <rmsd>  (12) 
4.82004

>  <sdf_rank>  (12) 
0

$$$$

     RDKit          3D

 87 94  0  0  0  0  0  0  0  0999 V2000
   -5.3270  -11.5965   19.9577 C   0  0  1  0  0  0  0  0  0  0  0  0
   -6.1256  -10.8694   20.9783 C   0  0  0  0  0  0  0  0  0  0  0  0
   -8.5271  -12.8058   16.5277 C   0  0  0  0  0  0  0  0  0  0  0  0
   -5.7663  -11.2976   18.5654 C   0  0  0  0  0  0  0  0  0  0  0  0
   -6.7178  -11.8905   17.8555 C   0  0  0  0  0  0  0  0  0  0  0  0
   -7.7833  -13.0027   17.8460 C   0  0  0  0  0  0  0  0  0  0  0  0
   -7.2100  -12.2066   14.2955 C   0  0  0  0  0  0  0  0  0  0  0  0
   -0.5303  -11.7586   19.4124 C   0  0  0  0  0  0  0  0  0  0  0  0
   -6.6732   -9.7850   20.7521 O   0  0  0  0  0  0  0  0  0  0  0  0
   -0.3966  -12.8095   18.3017 C   0  0  0  0  0  0  0  0  0  0  0  0
   -7.0194  -10.9583   23.1952 C   0  0  0  0  0  0  0  0  0  0  0  0
    9.0954  -17.1934   16.8594 C   0  0  1  0  0  0  0  0  0  0  0  0
   -7.9227  -10.9124   25.2382 C   0  0  0  0  0  0  0  0  0  0  0  0
   -1.7892  -11.4537   19.8651 C   0  0  0  0  0  0  0  0  0  0  0  0
   -2.0034  -10.4928   20.8978 C   0  0  0  0  0  0  0  0  0  0  0  0
   -3.3812  -10.3869   21.0515 C   0  0  0  0  0  0  0  0  0  0  0  0
   -0.8753   -9.8409   21.5196 C   0  0  0  0  0  0  0  0  0  0  0  0
    4.3735  -12.1439   18.9654 C   0  0  0  0  0  0  0  0  0  0  0  0
    5.2644  -11.1226   18.7487 C   0  0  0  0  0  0  0  0  0  0  0  0
    6.6099  -11.4656   18.3963 C   0  0  0  0  0  0  0  0  0  0  0  0
   -7.6699  -11.8531   15.7107 C   0  0  2  0  0  0  0  0  0  0  0  0
   -6.7474  -11.2906   16.6137 N   0  0  0  0  0  0  0  0  0  0  0  0
   -5.7937  -10.3554   16.6347 C   0  0  0  0  0  0  0  0  0  0  0  0
   -5.1776  -10.3143   17.8085 N   0  0  0  0  0  0  0  0  0  0  0  0
   -8.2245  -11.0539   14.5283 C   0  0  0  0  0  0  0  0  0  0  0  0
   -3.9009  -11.2317   20.1316 N   0  0  0  0  0  0  0  0  0  0  0  0
    0.5345  -11.1587   20.0489 C   0  0  0  0  0  0  0  0  0  0  0  0
    0.3648  -10.2299   21.0577 C   0  0  0  0  0  0  0  0  0  0  0  0
   -1.0056   -8.9271   22.6570 C   0  0  1  0  0  0  0  0  0  0  0  0
   -1.1648   -9.6531   23.8341 F   0  0  0  0  0  0  0  0  0  0  0  0
    0.1580   -8.2590   22.8926 F   0  0  0  0  0  0  0  0  0  0  0  0
    1.9148  -11.4839   19.6648 C   0  0  0  0  0  0  0  0  0  0  0  0
    3.0202  -11.7633   19.3709 C   0  0  0  0  0  0  0  0  0  0  0  0
    6.9434  -12.7824   18.3752 C   0  0  0  0  0  0  0  0  0  0  0  0
    6.0522  -13.8216   18.6413 C   0  0  0  0  0  0  0  0  0  0  0  0
    4.7280  -13.4796   18.9710 C   0  0  0  0  0  0  0  0  0  0  0  0
    8.3887  -13.1246   17.9615 C   0  0  0  0  0  0  0  0  0  0  0  0
   -2.9765  -11.9126   19.4116 N   0  0  0  0  0  0  0  0  0  0  0  0
   -6.2578  -11.4695   22.1897 N   0  0  0  0  0  0  0  0  0  0  0  0
   -7.8470   -9.4591   23.1661 S   0  0  0  0  0  0  0  0  0  0  0  0
   -8.3986   -9.7287   24.8005 C   0  0  0  0  0  0  0  0  0  0  0  0
   -7.1363  -11.5909   24.3253 N   0  0  0  0  0  0  0  0  0  0  0  0
    9.5742  -15.2512   18.4088 C   0  0  0  0  0  0  0  0  0  0  0  0
    9.3643  -16.7716   18.3130 C   0  0  0  0  0  0  0  0  0  0  0  0
    7.8897  -16.4417   16.2635 C   0  0  0  0  0  0  0  0  0  0  0  0
    8.1981  -14.9413   16.3381 C   0  0  0  0  0  0  0  0  0  0  0  0
    8.4324  -14.5843   17.7510 N   0  0  2  0  0  0  0  0  0  0  0  0
   10.3452  -16.8975   16.0279 C   0  0  0  0  0  0  0  0  0  0  0  0
   10.4046  -17.8457   14.9692 O   0  0  0  0  0  0  0  0  0  0  0  0
   -5.4768  -12.6759   20.1078 H   0  0  0  0  0  0  0  0  0  0  0  0
   -8.6394  -13.7663   16.0035 H   0  0  0  0  0  0  0  0  0  0  0  0
   -9.5390  -12.4056   16.6882 H   0  0  0  0  0  0  0  0  0  0  0  0
   -8.4684  -12.8924   18.6995 H   0  0  0  0  0  0  0  0  0  0  0  0
   -7.3419  -14.0065   17.9320 H   0  0  0  0  0  0  0  0  0  0  0  0
   -6.1816  -11.9799   13.9775 H   0  0  0  0  0  0  0  0  0  0  0  0
   -7.1951  -13.1218   13.6855 H   0  0  0  0  0  0  0  0  0  0  0  0
   -0.2699  -13.8050   18.7522 H   0  0  0  0  0  0  0  0  0  0  0  0
   -1.3029  -12.8017   17.6785 H   0  0  0  0  0  0  0  0  0  0  0  0
    0.4790  -12.5750   17.6785 H   0  0  0  0  0  0  0  0  0  0  0  0
    8.8602  -18.2678   16.8421 H   0  0  0  0  0  0  0  0  0  0  0  0
   -8.1426  -11.3066   26.2413 H   0  0  0  0  0  0  0  0  0  0  0  0
   -3.9291   -9.7541   21.7653 H   0  0  0  0  0  0  0  0  0  0  0  0
    4.9543  -10.0715   18.8429 H   0  0  0  0  0  0  0  0  0  0  0  0
    7.3486  -10.6883   18.1509 H   0  0  0  0  0  0  0  0  0  0  0  0
   -5.5498   -9.7012   15.7846 H   0  0  0  0  0  0  0  0  0  0  0  0
   -7.9165  -10.0089   14.3760 H   0  0  0  0  0  0  0  0  0  0  0  0
   -9.2293  -10.8101   14.1530 H   0  0  0  0  0  0  0  0  0  0  0  0
    1.2594   -9.7802   21.5131 H   0  0  0  0  0  0  0  0  0  0  0  0
   -1.8468   -8.2622   22.4114 H   0  0  0  0  0  0  0  0  0  0  0  0
    6.3736  -14.8726   18.5949 H   0  0  0  0  0  0  0  0  0  0  0  0
    3.9925  -14.2565   19.2269 H   0  0  0  0  0  0  0  0  0  0  0  0
    8.6520  -12.5990   17.0317 H   0  0  0  0  0  0  0  0  0  0  0  0
    9.1069  -12.8135   18.7345 H   0  0  0  0  0  0  0  0  0  0  0  0
   -5.7573  -12.3543   22.3554 H   0  0  0  0  0  0  0  0  0  0  0  0
   -9.0331   -9.0426   25.3808 H   0  0  0  0  0  0  0  0  0  0  0  0
    9.6240  -14.9482   19.4651 H   0  0  0  0  0  0  0  0  0  0  0  0
   10.5154  -14.9662   17.9161 H   0  0  0  0  0  0  0  0  0  0  0  0
    8.5045  -17.0573   18.9367 H   0  0  0  0  0  0  0  0  0  0  0  0
   10.2760  -17.2769   18.6645 H   0  0  0  0  0  0  0  0  0  0  0  0
    7.7401  -16.7425   15.2161 H   0  0  0  0  0  0  0  0  0  0  0  0
    6.9722  -16.6766   16.8229 H   0  0  0  0  0  0  0  0  0  0  0  0
    9.0962  -14.7164   15.7441 H   0  0  0  0  0  0  0  0  0  0  0  0
    7.3543  -14.3612   15.9363 H   0  0  0  0  0  0  0  0  0  0  0  0
    7.6317  -14.9896   18.2566 H   0  0  0  0  0  0  0  0  0  0  0  0
   10.2860  -15.8799   15.6145 H   0  0  0  0  0  0  0  0  0  0  0  0
   11.2463  -16.9684   16.6547 H   0  0  0  0  0  0  0  0  0  0  0  0
   10.4618  -18.7590   15.3470 H   0  0  0  0  0  0  0  0  0  0  0  0
  1  2  1  0
  1  4  1  0
  1 26  1  0
  2  9  2  0
  2 39  1  0
  3  6  1  0
 21  3  1  1
  4  5  2  0
  4 24  1  0
  5  6  1  0
  5 22  1  0
  7 21  1  0
  7 25  1  0
  8 10  1  0
  8 14  1  0
  8 27  2  0
 11 39  1  0
 11 40  1  0
 11 42  2  0
 12 44  1  0
 12 45  1  0
 12 48  1  0
 13 41  2  0
 13 42  1  0
 14 15  1  0
 14 38  2  0
 15 16  2  0
 15 17  1  0
 16 26  1  0
 17 28  2  0
 17 29  1  0
 18 19  2  0
 18 33  1  0
 18 36  1  0
 19 20  1  0
 20 34  2  0
 21 22  1  0
 21 25  1  0
 22 23  1  0
 23 24  2  0
 26 38  1  0
 27 28  1  0
 27 32  1  0
 29 30  1  0
 29 31  1  0
 32 33  3  0
 34 35  1  0
 34 37  1  0
 35 36  2  0
 47 37  1  0
 40 41  1  0
 43 44  1  0
 43 47  1  0
 45 46  1  0
 46 47  1  0
 48 49  1  0
  1 50  1  1
  3 51  1  0
  3 52  1  0
  6 53  1  0
  6 54  1  0
  7 55  1  0
  7 56  1  0
 10 57  1  0
 10 58  1  0
 10 59  1  0
 12 60  1  1
 13 61  1  0
 16 62  1  0
 19 63  1  0
 20 64  1  0
 23 65  1  0
 25 66  1  0
 25 67  1  0
 28 68  1  0
 29 69  1  6
 35 70  1  0
 36 71  1  0
 37 72  1  0
 37 73  1  0
 39 74  1  0
 41 75  1  0
 43 76  1  0
 43 77  1  0
 44 78  1  0
 44 79  1  0
 45 80  1  0
 45 81  1  0
 46 82  1  0
 46 83  1  0
 47 84  1  1
 48 85  1  0
 48 86  1  0
 49 87  1  0
M  CHG  1  47   1
M  END
>  <filename_input>  (13) 
8A2D_KXY_docked.sdf

>  <pdb_id>  (13) 
8A2D_KXY

>  <pose_rank>  (13) 
12

>  <num_atoms_heavy>  (13) 
49

>  <num_torsions>  (13) 
9

>  <pose>  (13) 
[-0.5302606898368617, -11.758585356097338, 19.412392615393596, 0.1403246779061329, -0.16787618004720242, 0.2199097962786364, 2.2612157588629045, -6.693854536956204, -12.654200812464138, -7.5976236247969915, -5.950182914030304, -0.7563641825716788, 13.957710249483736, 11.142772891225267, -5.305321902701665]

>  <energy>  (13) 
-527.3352465259139

>  <inter_energy>  (13) 
-544.4127775812659

>  <intra_energy>  (13) 
20.16254901388235

>  <rmsd>  (13) 
4.90977

>  <sdf_rank>  (13) 
0

$$$$

     RDKit          3D

 87 94  0  0  0  0  0  0  0  0999 V2000
  -11.6071  -11.2599   25.0189 C   0  0  1  0  0  0  0  0  0  0  0  0
  -12.5964  -10.2535   25.4841 C   0  0  0  0  0  0  0  0  0  0  0  0
  -14.9134  -14.6856   24.1244 C   0  0  0  0  0  0  0  0  0  0  0  0
  -12.1534  -12.1550   23.9601 C   0  0  0  0  0  0  0  0  0  0  0  0
  -13.0996  -13.0790   24.0685 C   0  0  0  0  0  0  0  0  0  0  0  0
  -14.0764  -13.7843   25.0281 C   0  0  0  0  0  0  0  0  0  0  0  0
  -13.7868  -16.0467   22.1358 C   0  0  0  0  0  0  0  0  0  0  0  0
   -7.0874  -10.5633   23.4635 C   0  0  0  0  0  0  0  0  0  0  0  0
  -12.8328   -9.2109   24.8645 O   0  0  0  0  0  0  0  0  0  0  0  0
   -6.5867  -12.0105   23.3588 C   0  0  0  0  0  0  0  0  0  0  0  0
  -14.2533   -9.7522   27.1348 C   0  0  0  0  0  0  0  0  0  0  0  0
    2.5356  -13.9425   18.6837 C   0  0  1  0  0  0  0  0  0  0  0  0
  -15.8318   -9.1599   28.6009 C   0  0  0  0  0  0  0  0  0  0  0  0
   -8.3673  -10.3532   23.9113 C   0  0  0  0  0  0  0  0  0  0  0  0
   -8.9105   -9.0406   24.0435 C   0  0  0  0  0  0  0  0  0  0  0  0
  -10.2304   -9.2043   24.4486 C   0  0  0  0  0  0  0  0  0  0  0  0
   -8.0944   -7.8897   23.7374 C   0  0  0  0  0  0  0  0  0  0  0  0
   -2.4060   -9.9300   22.0346 C   0  0  0  0  0  0  0  0  0  0  0  0
   -2.0869   -9.4762   20.7793 C   0  0  0  0  0  0  0  0  0  0  0  0
   -0.7318   -9.6165   20.3363 C   0  0  0  0  0  0  0  0  0  0  0  0
  -14.1833  -14.7234   22.7920 C   0  0  2  0  0  0  0  0  0  0  0  0
  -13.2517  -13.6681   22.8306 N   0  0  0  0  0  0  0  0  0  0  0  0
  -12.3721  -13.0650   22.0261 C   0  0  0  0  0  0  0  0  0  0  0  0
  -11.6891  -12.1265   22.6677 N   0  0  0  0  0  0  0  0  0  0  0  0
  -14.8693  -15.1406   21.4882 C   0  0  0  0  0  0  0  0  0  0  0  0
  -10.4119  -10.5433   24.5138 N   0  0  0  0  0  0  0  0  0  0  0  0
   -6.3111   -9.4513   23.2192 C   0  0  0  0  0  0  0  0  0  0  0  0
   -6.8014   -8.1655   23.3443 C   0  0  0  0  0  0  0  0  0  0  0  0
   -8.5416   -6.5113   23.9512 C   0  0  1  0  0  0  0  0  0  0  0  0
   -7.6426   -5.8429   24.7777 F   0  0  0  0  0  0  0  0  0  0  0  0
   -8.4660   -5.7815   22.8034 F   0  0  0  0  0  0  0  0  0  0  0  0
   -4.9104   -9.5948   22.8000 C   0  0  0  0  0  0  0  0  0  0  0  0
   -3.7860   -9.7291   22.4771 C   0  0  0  0  0  0  0  0  0  0  0  0
    0.1737  -10.1185   21.2159 C   0  0  0  0  0  0  0  0  0  0  0  0
   -0.1380  -10.5369   22.5094 C   0  0  0  0  0  0  0  0  0  0  0  0
   -1.4735  -10.4119   22.9335 C   0  0  0  0  0  0  0  0  0  0  0  0
    1.6176  -10.2888   20.7028 C   0  0  0  0  0  0  0  0  0  0  0  0
   -9.3078  -11.2726   24.2213 N   0  0  0  0  0  0  0  0  0  0  0  0
  -13.2677  -10.5428   26.6290 N   0  0  0  0  0  0  0  0  0  0  0  0
  -14.7503   -8.2391   26.5047 S   0  0  0  0  0  0  0  0  0  0  0  0
  -15.9076   -8.0759   27.8018 C   0  0  0  0  0  0  0  0  0  0  0  0
  -14.8857  -10.0932   28.2187 N   0  0  0  0  0  0  0  0  0  0  0  0
    2.5682  -12.5719   20.8103 C   0  0  0  0  0  0  0  0  0  0  0  0
    2.3644  -13.9734   20.2111 C   0  0  0  0  0  0  0  0  0  0  0  0
    1.5810  -12.9280   18.0254 C   0  0  0  0  0  0  0  0  0  0  0  0
    1.8847  -11.5504   18.6270 C   0  0  0  0  0  0  0  0  0  0  0  0
    1.6913  -11.6281   20.0882 N   0  0  2  0  0  0  0  0  0  0  0  0
    3.9834  -13.5652   18.3640 C   0  0  0  0  0  0  0  0  0  0  0  0
    4.7003  -14.7625   18.0890 O   0  0  0  0  0  0  0  0  0  0  0  0
  -11.3463  -11.9058   25.8703 H   0  0  0  0  0  0  0  0  0  0  0  0
  -14.9851  -15.6968   24.5513 H   0  0  0  0  0  0  0  0  0  0  0  0
  -15.9408  -14.3085   24.0140 H   0  0  0  0  0  0  0  0  0  0  0  0
  -14.7134  -13.0505   25.5435 H   0  0  0  0  0  0  0  0  0  0  0  0
  -13.5557  -14.3484   25.8160 H   0  0  0  0  0  0  0  0  0  0  0  0
  -12.8004  -16.1526   21.6607 H   0  0  0  0  0  0  0  0  0  0  0  0
  -13.7407  -17.0964   22.4616 H   0  0  0  0  0  0  0  0  0  0  0  0
   -6.4440  -12.4230   24.3685 H   0  0  0  0  0  0  0  0  0  0  0  0
   -7.3275  -12.6164   22.8165 H   0  0  0  0  0  0  0  0  0  0  0  0
   -5.6299  -12.0291   22.8165 H   0  0  0  0  0  0  0  0  0  0  0  0
    2.2935  -14.9374   18.2819 H   0  0  0  0  0  0  0  0  0  0  0  0
  -16.4716   -9.2910   29.4860 H   0  0  0  0  0  0  0  0  0  0  0  0
  -10.9665   -8.4169   24.6682 H   0  0  0  0  0  0  0  0  0  0  0  0
   -2.8494   -9.0182   20.1322 H   0  0  0  0  0  0  0  0  0  0  0  0
   -0.4342   -9.3273   19.3175 H   0  0  0  0  0  0  0  0  0  0  0  0
  -12.2318  -13.3155   20.9642 H   0  0  0  0  0  0  0  0  0  0  0  0
  -14.6513  -14.6028   20.5537 H   0  0  0  0  0  0  0  0  0  0  0  0
  -15.9111  -15.2787   21.1633 H   0  0  0  0  0  0  0  0  0  0  0  0
   -6.1299   -7.3236   23.1203 H   0  0  0  0  0  0  0  0  0  0  0  0
   -9.5632   -6.5872   24.3519 H   0  0  0  0  0  0  0  0  0  0  0  0
    0.6340  -10.9504   23.1750 H   0  0  0  0  0  0  0  0  0  0  0  0
   -1.7684  -10.6910   23.9558 H   0  0  0  0  0  0  0  0  0  0  0  0
    1.8486   -9.5151   19.9557 H   0  0  0  0  0  0  0  0  0  0  0  0
    2.3444  -10.1877   21.5222 H   0  0  0  0  0  0  0  0  0  0  0  0
  -13.0187  -11.4022   27.1391 H   0  0  0  0  0  0  0  0  0  0  0  0
  -16.5897   -7.2248   27.9445 H   0  0  0  0  0  0  0  0  0  0  0  0
    2.3048  -12.5818   21.8783 H   0  0  0  0  0  0  0  0  0  0  0  0
    3.6198  -12.2654   20.7099 H   0  0  0  0  0  0  0  0  0  0  0  0
    1.3510  -14.3258   20.4536 H   0  0  0  0  0  0  0  0  0  0  0  0
    3.1173  -14.6527   20.6373 H   0  0  0  0  0  0  0  0  0  0  0  0
    1.7465  -12.9076   16.9381 H   0  0  0  0  0  0  0  0  0  0  0  0
    0.5329  -13.2077   18.2083 H   0  0  0  0  0  0  0  0  0  0  0  0
    2.9243  -11.2686   18.4042 H   0  0  0  0  0  0  0  0  0  0  0  0
    1.2131  -10.7932   18.1963 H   0  0  0  0  0  0  0  0  0  0  0  0
    0.7672  -12.0682   20.2039 H   0  0  0  0  0  0  0  0  0  0  0  0
    4.0113  -12.9035   17.4857 H   0  0  0  0  0  0  0  0  0  0  0  0
    4.4367  -13.0359   19.2151 H   0  0  0  0  0  0  0  0  0  0  0  0
    4.9593  -15.1952   18.9409 H   0  0  0  0  0  0  0  0  0  0  0  0
  1  2  1  0
  1  4  1  0
  1 26  1  0
  2  9  2  0
  2 39  1  0
  3  6  1  0
 21  3  1  1
  4  5  2  0
  4 24  1  0
  5  6  1  0
  5 22  1  0
  7 21  1  0
  7 25  1  0
  8 10  1  0
  8 14  1  0
  8 27  2  0
 11 39  1  0
 11 40  1  0
 11 42  2  0
 12 44  1  0
 12 45  1  0
 12 48  1  0
 13 41  2  0
 13 42  1  0
 14 15  1  0
 14 38  2  0
 15 16  2  0
 15 17  1  0
 16 26  1  0
 17 28  2  0
 17 29  1  0
 18 19  2  0
 18 33  1  0
 18 36  1  0
 19 20  1  0
 20 34  2  0
 21 22  1  0
 21 25  1  0
 22 23  1  0
 23 24  2  0
 26 38  1  0
 27 28  1  0
 27 32  1  0
 29 30  1  0
 29 31  1  0
 32 33  3  0
 34 35  1  0
 34 37  1  0
 35 36  2  0
 47 37  1  0
 40 41  1  0
 43 44  1  0
 43 47  1  0
 45 46  1  0
 46 47  1  0
 48 49  1  0
  1 50  1  1
  3 51  1  0
  3 52  1  0
  6 53  1  0
  6 54  1  0
  7 55  1  0
  7 56  1  0
 10 57  1  0
 10 58  1  0
 10 59  1  0
 12 60  1  6
 13 61  1  0
 16 62  1  0
 19 63  1  0
 20 64  1  0
 23 65  1  0
 25 66  1  0
 25 67  1  0
 28 68  1  0
 29 69  1  1
 35 70  1  0
 36 71  1  0
 37 72  1  0
 37 73  1  0
 39 74  1  0
 41 75  1  0
 43 76  1  0
 43 77  1  0
 44 78  1  0
 44 79  1  0
 45 80  1  0
 45 81  1  0
 46 82  1  0
 46 83  1  0
 47 84  1  6
 48 85  1  0
 48 86  1  0
 49 87  1  0
M  CHG  1  47   1
M  END
>  <filename_input>  (14) 
8A2D_KXY_docked.sdf

>  <pdb_id>  (14) 
8A2D_KXY

>  <pose_rank>  (14) 
13

>  <num_atoms_heavy>  (14) 
49

>  <num_torsions>  (14) 
9

>  <pose>  (14) 
[-7.087378838875099, -10.563252276067095, 23.463455680731496, -0.6051250730154005, 0.11022032757864962, 0.6059482352060503, 3.035353795649247, 0.46653009094165715, -1.243442160740454, 0.09672858017174653, 0.6628864461406759, -1.656020416390954, 1.3692250990951425, -1.0972678639512112, 0.0579918320694988]

>  <energy>  (14) 
-614.7438789132976

>  <inter_energy>  (14) 
-644.0801685366303

>  <intra_energy>  (14) 
40.79444377074006

>  <rmsd>  (14) 
6.70161

>  <sdf_rank>  (14) 
0

$$$$

     RDKit          3D

 87 94  0  0  0  0  0  0  0  0999 V2000
    4.1479  -10.8812   19.0895 C   0  0  1  0  0  0  0  0  0  0  0  0
    4.9613  -12.1130   18.9191 C   0  0  0  0  0  0  0  0  0  0  0  0
    1.8551   -9.5079   15.0491 C   0  0  0  0  0  0  0  0  0  0  0  0
    4.2297   -9.9718   17.9117 C   0  0  0  0  0  0  0  0  0  0  0  0
    3.3925   -9.8719   16.8870 C   0  0  0  0  0  0  0  0  0  0  0  0
    2.1021  -10.4190   16.2485 C   0  0  0  0  0  0  0  0  0  0  0  0
    3.8691   -8.7112   13.5046 C   0  0  0  0  0  0  0  0  0  0  0  0
   -0.4320  -10.5757   20.5940 C   0  0  0  0  0  0  0  0  0  0  0  0
    5.5707  -12.6473   19.8517 O   0  0  0  0  0  0  0  0  0  0  0  0
   -0.4916   -9.1138   21.0580 C   0  0  0  0  0  0  0  0  0  0  0  0
    5.6282  -13.8243   17.3867 C   0  0  0  0  0  0  0  0  0  0  0  0
  -10.2486  -12.8451   25.2529 C   0  0  1  0  0  0  0  0  0  0  0  0
    6.3222  -15.4889   16.0679 C   0  0  0  0  0  0  0  0  0  0  0  0
    0.7599  -11.0512   20.1080 C   0  0  0  0  0  0  0  0  0  0  0  0
    0.9043  -12.3982   19.6604 C   0  0  0  0  0  0  0  0  0  0  0  0
    2.2030  -12.5108   19.1770 C   0  0  0  0  0  0  0  0  0  0  0  0
   -0.2122  -13.3093   19.7477 C   0  0  0  0  0  0  0  0  0  0  0  0
   -5.1084  -10.3539   22.2617 C   0  0  0  0  0  0  0  0  0  0  0  0
   -5.1278   -9.3824   23.2309 C   0  0  0  0  0  0  0  0  0  0  0  0
   -6.3992   -8.9711   23.7473 C   0  0  0  0  0  0  0  0  0  0  0  0
    3.1454   -8.7295   14.8519 C   0  0  2  0  0  0  0  0  0  0  0  0
    3.8922   -8.9121   16.0317 N   0  0  0  0  0  0  0  0  0  0  0  0
    5.0265   -8.4783   16.5885 C   0  0  0  0  0  0  0  0  0  0  0  0
    5.2662   -9.0867   17.7424 N   0  0  0  0  0  0  0  0  0  0  0  0
    3.2053   -7.4211   14.0589 C   0  0  0  0  0  0  0  0  0  0  0  0
    2.7403  -11.2787   19.3298 N   0  0  0  0  0  0  0  0  0  0  0  0
   -1.4718  -11.4724   20.7102 C   0  0  0  0  0  0  0  0  0  0  0  0
   -1.3653  -12.7858   20.2945 C   0  0  0  0  0  0  0  0  0  0  0  0
   -0.1132  -14.7316   19.4118 C   0  0  1  0  0  0  0  0  0  0  0  0
    0.8833  -15.3321   20.1763 F   0  0  0  0  0  0  0  0  0  0  0  0
   -1.2235  -15.4137   19.8090 F   0  0  0  0  0  0  0  0  0  0  0  0
   -2.7588  -11.0547   21.2826 C   0  0  0  0  0  0  0  0  0  0  0  0
   -3.7991  -10.7183   21.7197 C   0  0  0  0  0  0  0  0  0  0  0  0
   -7.5143   -9.5112   23.1901 C   0  0  0  0  0  0  0  0  0  0  0  0
   -7.4995  -10.4642   22.1719 C   0  0  0  0  0  0  0  0  0  0  0  0
   -6.2477  -10.8765   21.6798 C   0  0  0  0  0  0  0  0  0  0  0  0
   -8.8676   -9.0753   23.7864 C   0  0  0  0  0  0  0  0  0  0  0  0
    1.9129  -10.3752   19.9092 N   0  0  0  0  0  0  0  0  0  0  0  0
    4.9876  -12.6587   17.6755 N   0  0  0  0  0  0  0  0  0  0  0  0
    6.5798  -14.7438   18.4741 S   0  0  0  0  0  0  0  0  0  0  0  0
    6.9384  -15.8835   17.2010 C   0  0  0  0  0  0  0  0  0  0  0  0
    5.5949  -14.3186   16.1844 N   0  0  0  0  0  0  0  0  0  0  0  0
   -8.3630  -11.1784   24.9905 C   0  0  0  0  0  0  0  0  0  0  0  0
   -9.0279  -12.1996   25.9286 C   0  0  0  0  0  0  0  0  0  0  0  0
  -11.2696  -11.7866   24.7937 C   0  0  0  0  0  0  0  0  0  0  0  0
  -10.5521  -10.8454   23.8183 C   0  0  0  0  0  0  0  0  0  0  0  0
   -9.4011  -10.2408   24.5171 N   0  0  2  0  0  0  0  0  0  0  0  0
   -9.7667  -13.6499   24.0443 C   0  0  0  0  0  0  0  0  0  0  0  0
  -10.8825  -14.3505   23.5082 O   0  0  0  0  0  0  0  0  0  0  0  0
    4.5484  -10.3196   19.9464 H   0  0  0  0  0  0  0  0  0  0  0  0
    1.6268  -10.1052   14.1541 H   0  0  0  0  0  0  0  0  0  0  0  0
    0.9986   -8.8384   15.2172 H   0  0  0  0  0  0  0  0  0  0  0  0
    1.2633  -10.3642   16.9580 H   0  0  0  0  0  0  0  0  0  0  0  0
    2.1934  -11.4765   15.9595 H   0  0  0  0  0  0  0  0  0  0  0  0
    4.9653   -8.7944   13.4665 H   0  0  0  0  0  0  0  0  0  0  0  0
    3.7946   -9.2878   12.5709 H   0  0  0  0  0  0  0  0  0  0  0  0
   -0.4930   -9.0778   22.1574 H   0  0  0  0  0  0  0  0  0  0  0  0
    0.3852   -8.5714   20.6745 H   0  0  0  0  0  0  0  0  0  0  0  0
   -1.4096   -8.6445   20.6745 H   0  0  0  0  0  0  0  0  0  0  0  0
  -10.7504  -13.4982   25.9820 H   0  0  0  0  0  0  0  0  0  0  0  0
    6.3926  -16.0531   15.1262 H   0  0  0  0  0  0  0  0  0  0  0  0
    2.6878  -13.4063   18.7610 H   0  0  0  0  0  0  0  0  0  0  0  0
   -4.1944   -8.9326   23.6003 H   0  0  0  0  0  0  0  0  0  0  0  0
   -6.4702   -8.2420   24.5679 H   0  0  0  0  0  0  0  0  0  0  0  0
    5.6798   -7.7123   16.1454 H   0  0  0  0  0  0  0  0  0  0  0  0
    3.8300   -6.5886   14.4148 H   0  0  0  0  0  0  0  0  0  0  0  0
    2.4636   -6.7010   13.6830 H   0  0  0  0  0  0  0  0  0  0  0  0
   -2.2398  -13.4438   20.4045 H   0  0  0  0  0  0  0  0  0  0  0  0
    0.0562  -14.7712   18.3256 H   0  0  0  0  0  0  0  0  0  0  0  0
   -8.4345  -10.8793   21.7676 H   0  0  0  0  0  0  0  0  0  0  0  0
   -6.1775  -11.5972   20.8518 H   0  0  0  0  0  0  0  0  0  0  0  0
   -8.7244   -8.2291   24.4743 H   0  0  0  0  0  0  0  0  0  0  0  0
   -9.5621   -8.7495   22.9979 H   0  0  0  0  0  0  0  0  0  0  0  0
    4.4989  -12.1665   16.9140 H   0  0  0  0  0  0  0  0  0  0  0  0
    7.5667  -16.7803   17.3061 H   0  0  0  0  0  0  0  0  0  0  0  0
   -7.5828  -10.6260   25.5348 H   0  0  0  0  0  0  0  0  0  0  0  0
   -7.8989  -11.6935   24.1365 H   0  0  0  0  0  0  0  0  0  0  0  0
   -9.3521  -11.6884   26.8470 H   0  0  0  0  0  0  0  0  0  0  0  0
   -8.2984  -12.9876   26.1670 H   0  0  0  0  0  0  0  0  0  0  0  0
  -12.1162  -12.2755   24.2895 H   0  0  0  0  0  0  0  0  0  0  0  0
  -11.6603  -11.2260   25.6558 H   0  0  0  0  0  0  0  0  0  0  0  0
  -10.1999  -11.4136   22.9448 H   0  0  0  0  0  0  0  0  0  0  0  0
  -11.2412  -10.0599   23.4746 H   0  0  0  0  0  0  0  0  0  0  0  0
   -9.7910   -9.8923   25.4044 H   0  0  0  0  0  0  0  0  0  0  0  0
   -9.3526  -12.9705   23.2846 H   0  0  0  0  0  0  0  0  0  0  0  0
   -8.9806  -14.3578   24.3459 H   0  0  0  0  0  0  0  0  0  0  0  0
  -11.4393  -14.7001   24.2484 H   0  0  0  0  0  0  0  0  0  0  0  0
  1  2  1  0
  1  4  1  0
  1 26  1  0
  2  9  2  0
  2 39  1  0
  3  6  1  0
 21  3  1  6
  4  5  2  0
  4 24  1  0
  5  6  1  0
  5 22  1  0
  7 21  1  0
  7 25  1  0
  8 10  1  0
  8 14  1  0
  8 27  2  0
 11 39  1  0
 11 40  1  0
 11 42  2  0
 12 44  1  0
 12 45  1  0
 12 48  1  0
 13 41  2  0
 13 42  1  0
 14 15  1  0
 14 38  2  0
 15 16  2  0
 15 17  1  0
 16 26  1  0
 17 28  2  0
 17 29  1  0
 18 19  2  0
 18 33  1  0
 18 36  1  0
 19 20  1  0
 20 34  2  0
 21 22  1  0
 21 25  1  0
 22 23  1  0
 23 24  2  0
 26 38  1  0
 27 28  1  0
 27 32  1  0
 29 30  1  0
 29 31  1  0
 32 33  3  0
 34 35  1  0
 34 37  1  0
 35 36  2  0
 47 37  1  0
 40 41  1  0
 43 44  1  0
 43 47  1  0
 45 46  1  0
 46 47  1  0
 48 49  1  0
  1 50  1  1
  3 51  1  0
  3 52  1  0
  6 53  1  0
  6 54  1  0
  7 55  1  0
  7 56  1  0
 10 57  1  0
 10 58  1  0
 10 59  1  0
 12 60  1  1
 13 61  1  0
 16 62  1  0
 19 63  1  0
 20 64  1  0
 23 65  1  0
 25 66  1  0
 25 67  1  0
 28 68  1  0
 29 69  1  6
 35 70  1  0
 36 71  1  0
 37 72  1  0
 37 73  1  0
 39 74  1  0
 41 75  1  0
 43 76  1  0
 43 77  1  0
 44 78  1  0
 44 79  1  0
 45 80  1  0
 45 81  1  0
 46 82  1  0
 46 83  1  0
 47 84  1  1
 48 85  1  0
 48 86  1  0
 49 87  1  0
M  CHG  1  47   1
M  END
>  <filename_input>  (15) 
8A2D_KXY_docked.sdf

>  <pdb_id>  (15) 
8A2D_KXY

>  <pose_rank>  (15) 
14

>  <num_atoms_heavy>  (15) 
49

>  <num_torsions>  (15) 
9

>  <pose>  (15) 
[-0.4320138573430873, -10.575707638923166, 20.59401830135189, 0.5790293889876397, -1.5659122687730573, 2.8517897347899193, 1.8642642060763648, 2.814358705238496, 0.10614479195996086, -0.2699072235411033, -3.190853363032796, -0.3342863920046969, 1.1871097885277375, 1.7749899101998974, -2.3136034444309908]

>  <energy>  (15) 
-612.2766701886646

>  <inter_energy>  (15) 
-659.6222120347575

>  <intra_energy>  (15) 
55.87289232304083

>  <rmsd>  (15) 
13.4992

>  <sdf_rank>  (15) 
0

$$$$

     RDKit          3D

 87 94  0  0  0  0  0  0  0  0999 V2000
   -5.9272   -9.7539   23.7497 C   0  0  1  0  0  0  0  0  0  0  0  0
   -4.6799   -9.0003   24.0399 C   0  0  0  0  0  0  0  0  0  0  0  0
   -8.0665   -5.9030   21.7344 C   0  0  0  0  0  0  0  0  0  0  0  0
   -7.1424   -8.8926   23.7976 C   0  0  0  0  0  0  0  0  0  0  0  0
   -7.4126   -7.8069   23.0840 C   0  0  0  0  0  0  0  0  0  0  0  0
   -6.8918   -6.8392   22.0049 C   0  0  0  0  0  0  0  0  0  0  0  0
   -9.5670   -4.9864   23.7305 C   0  0  0  0  0  0  0  0  0  0  0  0
   -6.8033  -10.6472   19.0842 C   0  0  0  0  0  0  0  0  0  0  0  0
   -4.5272   -8.3275   25.0650 O   0  0  0  0  0  0  0  0  0  0  0  0
   -7.8055   -9.5321   18.7552 C   0  0  0  0  0  0  0  0  0  0  0  0
   -2.4560   -8.5306   23.2948 C   0  0  0  0  0  0  0  0  0  0  0  0
  -13.1155   -9.7433   11.1834 C   0  0  1  0  0  0  0  0  0  0  0  0
   -0.3589   -8.0132   22.7234 C   0  0  0  0  0  0  0  0  0  0  0  0
   -6.3300  -10.7317   20.3694 C   0  0  0  0  0  0  0  0  0  0  0  0
   -5.4002  -11.7401   20.7623 C   0  0  0  0  0  0  0  0  0  0  0  0
   -5.0899  -11.4864   22.0935 C   0  0  0  0  0  0  0  0  0  0  0  0
   -4.9630  -12.7282   19.8048 C   0  0  0  0  0  0  0  0  0  0  0  0
   -7.8048  -11.6041   14.3337 C   0  0  0  0  0  0  0  0  0  0  0  0
   -8.3127  -12.7756   13.8307 C   0  0  0  0  0  0  0  0  0  0  0  0
   -8.8191  -12.7701   12.4906 C   0  0  0  0  0  0  0  0  0  0  0  0
   -9.0498   -6.1392   22.8689 C   0  0  2  0  0  0  0  0  0  0  0  0
   -8.6429   -7.3349   23.4915 N   0  0  0  0  0  0  0  0  0  0  0  0
   -9.0575   -8.1688   24.4494 C   0  0  0  0  0  0  0  0  0  0  0  0
   -8.1811   -9.1415   24.6612 N   0  0  0  0  0  0  0  0  0  0  0  0
  -10.5266   -5.7461   22.7744 C   0  0  0  0  0  0  0  0  0  0  0  0
   -5.7970  -10.3778   22.4116 N   0  0  0  0  0  0  0  0  0  0  0  0
   -6.4083  -11.6254   18.1979 C   0  0  0  0  0  0  0  0  0  0  0  0
   -5.5159  -12.6214   18.5457 C   0  0  0  0  0  0  0  0  0  0  0  0
   -4.0979  -13.8566   20.1571 C   0  0  1  0  0  0  0  0  0  0  0  0
   -3.3550  -13.5491   21.2935 F   0  0  0  0  0  0  0  0  0  0  0  0
   -4.8266  -14.9281   20.5776 F   0  0  0  0  0  0  0  0  0  0  0  0
   -6.9238  -11.6403   16.8223 C   0  0  0  0  0  0  0  0  0  0  0  0
   -7.3398  -11.6290   15.7208 C   0  0  0  0  0  0  0  0  0  0  0  0
   -8.8387  -11.5857   11.8255 C   0  0  0  0  0  0  0  0  0  0  0  0
   -8.3668  -10.3831   12.3511 C   0  0  0  0  0  0  0  0  0  0  0  0
   -7.8557  -10.3977   13.6617 C   0  0  0  0  0  0  0  0  0  0  0  0
   -9.3587  -11.6144   10.3743 C   0  0  0  0  0  0  0  0  0  0  0  0
   -6.5762   -9.9042   21.4089 N   0  0  0  0  0  0  0  0  0  0  0  0
   -3.6790   -9.1038   23.1275 N   0  0  0  0  0  0  0  0  0  0  0  0
   -1.9912   -7.5161   24.5942 S   0  0  0  0  0  0  0  0  0  0  0  0
   -0.4141   -7.3111   23.8737 C   0  0  0  0  0  0  0  0  0  0  0  0
   -1.5226   -8.6881   22.4031 N   0  0  0  0  0  0  0  0  0  0  0  0
  -10.7450   -9.5643   10.3168 C   0  0  0  0  0  0  0  0  0  0  0  0
  -12.2035   -9.1214   10.1134 C   0  0  0  0  0  0  0  0  0  0  0  0
  -13.0128  -11.2805   11.1937 C   0  0  0  0  0  0  0  0  0  0  0  0
  -11.5471  -11.6437   11.4615 C   0  0  0  0  0  0  0  0  0  0  0  0
  -10.7168  -11.0384   10.4018 N   0  0  2  0  0  0  0  0  0  0  0  0
  -12.7057   -9.1935   12.5511 C   0  0  0  0  0  0  0  0  0  0  0  0
  -12.7961   -7.7749   12.5007 O   0  0  0  0  0  0  0  0  0  0  0  0
   -6.0561  -10.5198   24.5287 H   0  0  0  0  0  0  0  0  0  0  0  0
   -7.7296   -4.8559   21.7306 H   0  0  0  0  0  0  0  0  0  0  0  0
   -8.5239   -6.0983   20.7532 H   0  0  0  0  0  0  0  0  0  0  0  0
   -6.6129   -7.3871   21.0927 H   0  0  0  0  0  0  0  0  0  0  0  0
   -5.9903   -6.2977   22.3275 H   0  0  0  0  0  0  0  0  0  0  0  0
   -9.6610   -5.1111   24.8194 H   0  0  0  0  0  0  0  0  0  0  0  0
   -9.2836   -3.9337   23.8774 H   0  0  0  0  0  0  0  0  0  0  0  0
   -8.1936   -9.1004   19.6895 H   0  0  0  0  0  0  0  0  0  0  0  0
   -7.3026   -8.7481   18.1700 H   0  0  0  0  0  0  0  0  0  0  0  0
   -8.6386   -9.9488   18.1700 H   0  0  0  0  0  0  0  0  0  0  0  0
  -14.1585   -9.4803   10.9533 H   0  0  0  0  0  0  0  0  0  0  0  0
    0.5401   -8.0464   22.0904 H   0  0  0  0  0  0  0  0  0  0  0  0
   -4.4163  -12.0616   22.7459 H   0  0  0  0  0  0  0  0  0  0  0  0
   -8.3305  -13.6921   14.4387 H   0  0  0  0  0  0  0  0  0  0  0  0
   -9.1802  -13.6944   12.0159 H   0  0  0  0  0  0  0  0  0  0  0  0
  -10.0070   -8.0620   24.9945 H   0  0  0  0  0  0  0  0  0  0  0  0
  -11.3015   -6.4105   23.1843 H   0  0  0  0  0  0  0  0  0  0  0  0
  -11.2076   -5.4578   21.9601 H   0  0  0  0  0  0  0  0  0  0  0  0
   -5.2336  -13.3628   17.7837 H   0  0  0  0  0  0  0  0  0  0  0  0
   -3.4972  -14.0644   19.2593 H   0  0  0  0  0  0  0  0  0  0  0  0
   -8.3934   -9.4551   11.7611 H   0  0  0  0  0  0  0  0  0  0  0  0
   -7.5049   -9.4712   14.1399 H   0  0  0  0  0  0  0  0  0  0  0  0
   -8.7048  -11.0138    9.7249 H   0  0  0  0  0  0  0  0  0  0  0  0
   -9.3707  -12.6402    9.9774 H   0  0  0  0  0  0  0  0  0  0  0  0
   -3.8541   -9.6423   22.2671 H   0  0  0  0  0  0  0  0  0  0  0  0
    0.4040   -6.7059   24.2913 H   0  0  0  0  0  0  0  0  0  0  0  0
  -10.1321   -9.2287    9.4672 H   0  0  0  0  0  0  0  0  0  0  0  0
  -10.3395   -9.1232   11.2394 H   0  0  0  0  0  0  0  0  0  0  0  0
  -12.5431   -9.4437    9.1180 H   0  0  0  0  0  0  0  0  0  0  0  0
  -12.2552   -8.0259   10.1986 H   0  0  0  0  0  0  0  0  0  0  0  0
  -13.6530  -11.6942   11.9867 H   0  0  0  0  0  0  0  0  0  0  0  0
  -13.3452  -11.6971   10.2314 H   0  0  0  0  0  0  0  0  0  0  0  0
  -11.2406  -11.2524   12.4428 H   0  0  0  0  0  0  0  0  0  0  0  0
  -11.4222  -12.7366   11.4621 H   0  0  0  0  0  0  0  0  0  0  0  0
  -11.1809  -11.3092    9.5231 H   0  0  0  0  0  0  0  0  0  0  0  0
  -13.3808   -9.5831   13.3273 H   0  0  0  0  0  0  0  0  0  0  0  0
  -11.6783   -9.5021   12.7943 H   0  0  0  0  0  0  0  0  0  0  0  0
  -12.8192   -7.4128   13.4219 H   0  0  0  0  0  0  0  0  0  0  0  0
  1  2  1  0
  1  4  1  0
  1 26  1  0
  2  9  2  0
  2 39  1  0
  3  6  1  0
 21  3  1  6
  4  5  2  0
  4 24  1  0
  5  6  1  0
  5 22  1  0
  7 21  1  0
  7 25  1  0
  8 10  1  0
  8 14  1  0
  8 27  2  0
 11 39  1  0
 11 40  1  0
 11 42  2  0
 12 44  1  0
 12 45  1  0
 12 48  1  0
 13 41  2  0
 13 42  1  0
 14 15  1  0
 14 38  2  0
 15 16  2  0
 15 17  1  0
 16 26  1  0
 17 28  2  0
 17 29  1  0
 18 19  2  0
 18 33  1  0
 18 36  1  0
 19 20  1  0
 20 34  2  0
 21 22  1  0
 21 25  1  0
 22 23  1  0
 23 24  2  0
 26 38  1  0
 27 28  1  0
 27 32  1  0
 29 30  1  0
 29 31  1  0
 32 33  3  0
 34 35  1  0
 34 37  1  0
 35 36  2  0
 47 37  1  0
 40 41  1  0
 43 44  1  0
 43 47  1  0
 45 46  1  0
 46 47  1  0
 48 49  1  0
  1 50  1  1
  3 51  1  0
  3 52  1  0
  6 53  1  0
  6 54  1  0
  7 55  1  0
  7 56  1  0
 10 57  1  0
 10 58  1  0
 10 59  1  0
 12 60  1  6
 13 61  1  0
 16 62  1  0
 19 63  1  0
 20 64  1  0
 23 65  1  0
 25 66  1  0
 25 67  1  0
 28 68  1  0
 29 69  1  6
 35 70  1  0
 36 71  1  0
 37 72  1  0
 37 73  1  0
 39 74  1  0
 41 75  1  0
 43 76  1  0
 43 77  1  0
 44 78  1  0
 44 79  1  0
 45 80  1  0
 45 81  1  0
 46 82  1  0
 46 83  1  0
 47 84  1  6
 48 85  1  0
 48 86  1  0
 49 87  1  0
M  CHG  1  47   1
M  END
>  <filename_input>  (16) 
8A2D_KXY_docked.sdf

>  <pdb_id>  (16) 
8A2D_KXY

>  <pose_rank>  (16) 
15

>  <num_atoms_heavy>  (16) 
49

>  <num_torsions>  (16) 
9

>  <pose>  (16) 
[-6.803320464433298, -10.647157716671451, 19.084244747202046, 0.9887044938374042, 0.6957170671052544, -1.4550211605898704, 0.4549077924509998, -4.753353783743055, -0.3262005434339259, 3.459230606183796, -2.154770696279752, -2.3770963166604595, -3.5458972290828763, 1.1134684611835033, 2.4156208702765536]

>  <energy>  (16) 
-533.3158206099761

>  <inter_energy>  (16) 
-618.5464637876906

>  <intra_energy>  (16) 
87.03088558494036

>  <rmsd>  (16) 
10.5277

>  <sdf_rank>  (16) 
0

$$$$

     RDKit          3D

 87 94  0  0  0  0  0  0  0  0999 V2000
  -10.8992   -9.9187   23.3099 C   0  0  1  0  0  0  0  0  0  0  0  0
  -11.0966  -11.3914   23.2938 C   0  0  0  0  0  0  0  0  0  0  0  0
  -14.4433  -10.2609   26.5946 C   0  0  0  0  0  0  0  0  0  0  0  0
  -11.4803   -9.2750   24.5218 C   0  0  0  0  0  0  0  0  0  0  0  0
  -12.5655   -9.6239   25.2011 C   0  0  0  0  0  0  0  0  0  0  0  0
  -13.7427  -10.6135   25.2853 C   0  0  0  0  0  0  0  0  0  0  0  0
  -14.7841   -7.7239   27.3184 C   0  0  0  0  0  0  0  0  0  0  0  0
   -6.2809  -10.3890   21.9750 C   0  0  0  0  0  0  0  0  0  0  0  0
  -10.3388  -12.1750   23.8755 O   0  0  0  0  0  0  0  0  0  0  0  0
   -6.3977  -11.4674   20.8889 C   0  0  0  0  0  0  0  0  0  0  0  0
  -12.5324  -13.1683   22.5847 C   0  0  0  0  0  0  0  0  0  0  0  0
    2.7505  -16.2057   17.8740 C   0  0  1  0  0  0  0  0  0  0  0  0
  -13.7842  -14.9223   21.9945 C   0  0  0  0  0  0  0  0  0  0  0  0
   -7.4255   -9.9978   22.6227 C   0  0  0  0  0  0  0  0  0  0  0  0
   -7.4063   -9.0058   23.6480 C   0  0  0  0  0  0  0  0  0  0  0  0
   -8.7299   -8.8116   24.0268 C   0  0  0  0  0  0  0  0  0  0  0  0
   -6.1535   -8.4136   24.0530 C   0  0  0  0  0  0  0  0  0  0  0  0
   -1.5172  -10.9392   20.7000 C   0  0  0  0  0  0  0  0  0  0  0  0
   -0.4431  -11.0500   21.5470 C   0  0  0  0  0  0  0  0  0  0  0  0
    0.8174  -11.4405   20.9894 C   0  0  0  0  0  0  0  0  0  0  0  0
  -13.8748   -8.9158   27.0156 C   0  0  2  0  0  0  0  0  0  0  0  0
  -12.7218   -8.7199   26.2312 N   0  0  0  0  0  0  0  0  0  0  0  0
  -11.7111   -7.8539   26.1167 C   0  0  0  0  0  0  0  0  0  0  0  0
  -10.9208   -8.1599   25.0964 N   0  0  0  0  0  0  0  0  0  0  0  0
  -13.9647   -8.3969   28.4533 C   0  0  0  0  0  0  0  0  0  0  0  0
   -9.4455   -9.6400   23.2320 N   0  0  0  0  0  0  0  0  0  0  0  0
   -5.0910   -9.8444   22.4065 C   0  0  0  0  0  0  0  0  0  0  0  0
   -5.0339   -8.8876   23.4018 C   0  0  0  0  0  0  0  0  0  0  0  0
   -6.0368   -7.4717   25.1688 C   0  0  1  0  0  0  0  0  0  0  0  0
   -4.7823   -6.8685   25.1522 F   0  0  0  0  0  0  0  0  0  0  0  0
   -6.8659   -6.4032   25.0049 F   0  0  0  0  0  0  0  0  0  0  0  0
   -3.8165  -10.2620   21.8067 C   0  0  0  0  0  0  0  0  0  0  0  0
   -2.8011  -10.5859   21.3062 C   0  0  0  0  0  0  0  0  0  0  0  0
    0.8557  -11.7546   19.6682 C   0  0  0  0  0  0  0  0  0  0  0  0
   -0.2448  -11.6887   18.8140 C   0  0  0  0  0  0  0  0  0  0  0  0
   -1.4766  -11.2890   19.3637 C   0  0  0  0  0  0  0  0  0  0  0  0
    2.2308  -12.1404   19.0873 C   0  0  0  0  0  0  0  0  0  0  0  0
   -8.6969  -10.3908   22.3879 N   0  0  0  0  0  0  0  0  0  0  0  0
  -12.1836  -11.8532   22.6228 N   0  0  0  0  0  0  0  0  0  0  0  0
  -11.6421  -14.4639   23.2645 S   0  0  0  0  0  0  0  0  0  0  0  0
  -12.8220  -15.5978   22.6557 C   0  0  0  0  0  0  0  0  0  0  0  0
  -13.6021  -13.5522   21.9527 N   0  0  0  0  0  0  0  0  0  0  0  0
    3.0318  -14.4163   19.6407 C   0  0  0  0  0  0  0  0  0  0  0  0
    2.6909  -15.8927   19.3779 C   0  0  0  0  0  0  0  0  0  0  0  0
    1.8198  -15.2826   17.0643 C   0  0  0  0  0  0  0  0  0  0  0  0
    2.2587  -13.8372   17.3289 C   0  0  0  0  0  0  0  0  0  0  0  0
    2.1690  -13.5821   18.7799 N   0  0  2  0  0  0  0  0  0  0  0  0
    4.1927  -16.0254   17.3964 C   0  0  0  0  0  0  0  0  0  0  0  0
    5.0108  -16.9464   18.1076 O   0  0  0  0  0  0  0  0  0  0  0  0
  -11.4274   -9.4908   22.4451 H   0  0  0  0  0  0  0  0  0  0  0  0
  -15.5299  -10.1868   26.4404 H   0  0  0  0  0  0  0  0  0  0  0  0
  -14.2784  -11.0301   27.3635 H   0  0  0  0  0  0  0  0  0  0  0  0
  -13.3781  -11.6511   25.3062 H   0  0  0  0  0  0  0  0  0  0  0  0
  -14.4147  -10.5398   24.4175 H   0  0  0  0  0  0  0  0  0  0  0  0
  -14.5120   -6.7189   26.9636 H   0  0  0  0  0  0  0  0  0  0  0  0
  -15.8469   -7.4918   27.1553 H   0  0  0  0  0  0  0  0  0  0  0  0
   -6.5046  -12.4545   21.3624 H   0  0  0  0  0  0  0  0  0  0  0  0
   -7.2790  -11.2635   20.2630 H   0  0  0  0  0  0  0  0  0  0  0  0
   -5.4932  -11.4570   20.2630 H   0  0  0  0  0  0  0  0  0  0  0  0
    2.4133  -17.2407   17.7160 H   0  0  0  0  0  0  0  0  0  0  0  0
  -14.6451  -15.4215   21.5259 H   0  0  0  0  0  0  0  0  0  0  0  0
   -9.1118   -8.1324   24.8033 H   0  0  0  0  0  0  0  0  0  0  0  0
   -0.5470  -10.8449   22.6227 H   0  0  0  0  0  0  0  0  0  0  0  0
    1.7242  -11.4846   21.6104 H   0  0  0  0  0  0  0  0  0  0  0  0
  -11.5539   -6.9945   26.7850 H   0  0  0  0  0  0  0  0  0  0  0  0
  -13.1107   -7.8700   28.9039 H   0  0  0  0  0  0  0  0  0  0  0  0
  -14.2033   -8.8416   29.4307 H   0  0  0  0  0  0  0  0  0  0  0  0
   -4.0507   -8.4857   23.6877 H   0  0  0  0  0  0  0  0  0  0  0  0
   -6.2529   -8.0548   26.0761 H   0  0  0  0  0  0  0  0  0  0  0  0
   -0.1529  -11.9407   17.7472 H   0  0  0  0  0  0  0  0  0  0  0  0
   -2.3853  -11.2556   18.7447 H   0  0  0  0  0  0  0  0  0  0  0  0
    2.4307  -11.5652   18.1712 H   0  0  0  0  0  0  0  0  0  0  0  0
    3.0387  -11.9211   19.8009 H   0  0  0  0  0  0  0  0  0  0  0  0
  -12.7726  -11.1753   22.1184 H   0  0  0  0  0  0  0  0  0  0  0  0
  -12.7863  -16.6890   22.7900 H   0  0  0  0  0  0  0  0  0  0  0  0
    2.8480  -14.1744   20.6979 H   0  0  0  0  0  0  0  0  0  0  0  0
    4.0913  -14.2254   19.4149 H   0  0  0  0  0  0  0  0  0  0  0  0
    1.6768  -16.1008   19.7500 H   0  0  0  0  0  0  0  0  0  0  0  0
    3.4261  -16.5233   19.8994 H   0  0  0  0  0  0  0  0  0  0  0  0
    1.9056  -15.5106   15.9916 H   0  0  0  0  0  0  0  0  0  0  0  0
    0.7718  -15.4300   17.3642 H   0  0  0  0  0  0  0  0  0  0  0  0
    3.2956  -13.6957   16.9900 H   0  0  0  0  0  0  0  0  0  0  0  0
    1.6093  -13.1384   16.7811 H   0  0  0  0  0  0  0  0  0  0  0  0
    1.2287  -13.9101   19.0427 H   0  0  0  0  0  0  0  0  0  0  0  0
    4.2561  -16.2266   16.3168 H   0  0  0  0  0  0  0  0  0  0  0  0
    4.5296  -14.9946   17.5803 H   0  0  0  0  0  0  0  0  0  0  0  0
    4.8906  -16.8111   19.0810 H   0  0  0  0  0  0  0  0  0  0  0  0
  1  2  1  0
  1  4  1  0
  1 26  1  0
  2  9  2  0
  2 39  1  0
  3  6  1  0
 21  3  1  1
  4  5  2  0
  4 24  1  0
  5  6  1  0
  5 22  1  0
  7 21  1  0
  7 25  1  0
  8 10  1  0
  8 14  1  0
  8 27  2  0
 11 39  1  0
 11 40  1  0
 11 42  2  0
 12 44  1  0
 12 45  1  0
 12 48  1  0
 13 41  2  0
 13 42  1  0
 14 15  1  0
 14 38  2  0
 15 16  2  0
 15 17  1  0
 16 26  1  0
 17 28  2  0
 17 29  1  0
 18 19  2  0
 18 33  1  0
 18 36  1  0
 19 20  1  0
 20 34  2  0
 21 22  1  0
 21 25  1  0
 22 23  1  0
 23 24  2  0
 26 38  1  0
 27 28  1  0
 27 32  1  0
 29 30  1  0
 29 31  1  0
 32 33  3  0
 34 35  1  0
 34 37  1  0
 35 36  2  0
 47 37  1  0
 40 41  1  0
 43 44  1  0
 43 47  1  0
 45 46  1  0
 46 47  1  0
 48 49  1  0
  1 50  1  6
  3 51  1  0
  3 52  1  0
  6 53  1  0
  6 54  1  0
  7 55  1  0
  7 56  1  0
 10 57  1  0
 10 58  1  0
 10 59  1  0
 12 60  1  1
 13 61  1  0
 16 62  1  0
 19 63  1  0
 20 64  1  0
 23 65  1  0
 25 66  1  0
 25 67  1  0
 28 68  1  0
 29 69  1  1
 35 70  1  0
 36 71  1  0
 37 72  1  0
 37 73  1  0
 39 74  1  0
 41 75  1  0
 43 76  1  0
 43 77  1  0
 44 78  1  0
 44 79  1  0
 45 80  1  0
 45 81  1  0
 46 82  1  0
 46 83  1  0
 47 84  1  1
 48 85  1  0
 48 86  1  0
 49 87  1  0
M  CHG  1  47   1
M  END
>  <filename_input>  (17) 
8A2D_KXY_docked.sdf

>  <pdb_id>  (17) 
8A2D_KXY

>  <pose_rank>  (17) 
16

>  <num_atoms_heavy>  (17) 
49

>  <num_torsions>  (17) 
9

>  <pose>  (17) 
[-6.280857662545673, -10.389042740839317, 21.974967226680057, -3.9785760325383133, 0.04356551712681183, -4.605608722039829, -2.0533088576794634, 8.545026778197213, 5.028311047271366, 3.5607855862738336, 0.6890815206244747, -2.3056210655783453, -0.8899799699218259, 5.792870439962528, -0.006870052126550518]

>  <energy>  (17) 
-520.1872891057902

>  <inter_energy>  (17) 
-583.4468366416897

>  <intra_energy>  (17) 
68.01560125076107

>  <rmsd>  (17) 
4.74774

>  <sdf_rank>  (17) 
0

$$$$

     RDKit          3D

 87 94  0  0  0  0  0  0  0  0999 V2000
  -10.6486  -11.9997   24.3390 C   0  0  1  0  0  0  0  0  0  0  0  0
  -11.8274  -11.2040   24.7695 C   0  0  0  0  0  0  0  0  0  0  0  0
  -14.0574  -13.2044   21.1146 C   0  0  0  0  0  0  0  0  0  0  0  0
  -10.9532  -12.9028   23.1933 C   0  0  0  0  0  0  0  0  0  0  0  0
  -12.0863  -13.0182   22.5125 C   0  0  0  0  0  0  0  0  0  0  0  0
  -13.5382  -12.5221   22.3773 C   0  0  0  0  0  0  0  0  0  0  0  0
  -13.4666  -15.7460   20.5971 C   0  0  0  0  0  0  0  0  0  0  0  0
   -6.2863  -10.4878   22.9190 C   0  0  0  0  0  0  0  0  0  0  0  0
  -11.9748  -10.0129   24.4755 O   0  0  0  0  0  0  0  0  0  0  0  0
   -5.6254  -11.8187   22.5340 C   0  0  0  0  0  0  0  0  0  0  0  0
  -13.9389  -11.2794   25.8908 C   0  0  0  0  0  0  0  0  0  0  0  0
    3.2301   -5.8126   17.6485 C   0  0  1  0  0  0  0  0  0  0  0  0
  -15.9306  -11.2075   26.9006 C   0  0  0  0  0  0  0  0  0  0  0  0
   -7.5683  -10.5205   23.4069 C   0  0  0  0  0  0  0  0  0  0  0  0
   -8.2552   -9.3311   23.7933 C   0  0  0  0  0  0  0  0  0  0  0  0
   -9.5351   -9.7245   24.1674 C   0  0  0  0  0  0  0  0  0  0  0  0
   -7.5862   -8.0544   23.7098 C   0  0  0  0  0  0  0  0  0  0  0  0
   -1.7526   -9.0425   21.6094 C   0  0  0  0  0  0  0  0  0  0  0  0
   -0.8952   -8.2060   22.2794 C   0  0  0  0  0  0  0  0  0  0  0  0
    0.4742   -8.1682   21.8603 C   0  0  0  0  0  0  0  0  0  0  0  0
  -13.0439  -14.2885   20.7870 C   0  0  2  0  0  0  0  0  0  0  0  0
  -11.9027  -13.9981   21.5592 N   0  0  0  0  0  0  0  0  0  0  0  0
  -10.6507  -14.4359   21.7188 C   0  0  0  0  0  0  0  0  0  0  0  0
  -10.0289  -13.7882   22.6950 N   0  0  0  0  0  0  0  0  0  0  0  0
  -12.9322  -14.9188   19.3961 C   0  0  0  0  0  0  0  0  0  0  0  0
   -9.5591  -11.0632   23.9742 N   0  0  0  0  0  0  0  0  0  0  0  0
   -5.6507   -9.2656   22.8890 C   0  0  0  0  0  0  0  0  0  0  0  0
   -6.2820   -8.0948   23.2629 C   0  0  0  0  0  0  0  0  0  0  0  0
   -8.1829   -6.8051   24.1883 C   0  0  1  0  0  0  0  0  0  0  0  0
   -9.4730   -7.0426   24.6544 F   0  0  0  0  0  0  0  0  0  0  0  0
   -7.5560   -6.3537   25.3104 F   0  0  0  0  0  0  0  0  0  0  0  0
   -4.2555   -9.1593   22.4413 C   0  0  0  0  0  0  0  0  0  0  0  0
   -3.1330   -9.0952   22.0914 C   0  0  0  0  0  0  0  0  0  0  0  0
    0.8594   -9.0218   20.8760 C   0  0  0  0  0  0  0  0  0  0  0  0
    0.0006   -9.9073   20.2251 C   0  0  0  0  0  0  0  0  0  0  0  0
   -1.3466   -9.9285   20.6297 C   0  0  0  0  0  0  0  0  0  0  0  0
    2.3305   -8.9376   20.4223 C   0  0  0  0  0  0  0  0  0  0  0  0
   -8.3872  -11.5871   23.5395 N   0  0  0  0  0  0  0  0  0  0  0  0
  -12.7734  -11.8582   25.4920 N   0  0  0  0  0  0  0  0  0  0  0  0
  -14.3782   -9.6406   25.6570 S   0  0  0  0  0  0  0  0  0  0  0  0
  -15.8766   -9.9178   26.5093 C   0  0  0  0  0  0  0  0  0  0  0  0
  -14.8248  -11.9621   26.5543 N   0  0  0  0  0  0  0  0  0  0  0  0
    1.8772   -7.8684   18.2362 C   0  0  0  0  0  0  0  0  0  0  0  0
    1.8471   -6.4799   17.5759 C   0  0  0  0  0  0  0  0  0  0  0  0
    3.7364   -5.7111   19.1001 C   0  0  0  0  0  0  0  0  0  0  0  0
    3.7972   -7.1341   19.6686 C   0  0  0  0  0  0  0  0  0  0  0  0
    2.4464   -7.7240   19.5912 N   0  0  2  0  0  0  0  0  0  0  0  0
    4.2140   -6.6407   16.8197 C   0  0  0  0  0  0  0  0  0  0  0  0
    4.9992   -5.7444   16.0429 O   0  0  0  0  0  0  0  0  0  0  0  0
  -10.3458  -12.6469   25.1752 H   0  0  0  0  0  0  0  0  0  0  0  0
  -15.0474  -13.6475   21.2974 H   0  0  0  0  0  0  0  0  0  0  0  0
  -14.1714  -12.4910   20.2851 H   0  0  0  0  0  0  0  0  0  0  0  0
  -13.5669  -11.4279   22.2682 H   0  0  0  0  0  0  0  0  0  0  0  0
  -14.1464  -12.7602   23.2624 H   0  0  0  0  0  0  0  0  0  0  0  0
  -12.8571  -16.5567   21.0228 H   0  0  0  0  0  0  0  0  0  0  0  0
  -14.3783  -16.3270   20.8005 H   0  0  0  0  0  0  0  0  0  0  0  0
   -5.3519  -12.3695   23.4460 H   0  0  0  0  0  0  0  0  0  0  0  0
   -6.3299  -12.4195   21.9401 H   0  0  0  0  0  0  0  0  0  0  0  0
   -4.7210  -11.6206   21.9401 H   0  0  0  0  0  0  0  0  0  0  0  0
    3.1491   -4.7900   17.2514 H   0  0  0  0  0  0  0  0  0  0  0  0
  -16.7861  -11.6257   27.4512 H   0  0  0  0  0  0  0  0  0  0  0  0
  -10.3503   -9.0865   24.5393 H   0  0  0  0  0  0  0  0  0  0  0  0
   -1.2492   -7.5827   23.1137 H   0  0  0  0  0  0  0  0  0  0  0  0
    1.1901   -7.4712   22.3202 H   0  0  0  0  0  0  0  0  0  0  0  0
  -10.1927  -15.2338   21.1158 H   0  0  0  0  0  0  0  0  0  0  0  0
  -11.9432  -15.1418   18.9694 H   0  0  0  0  0  0  0  0  0  0  0  0
  -13.3062  -14.6678   18.3926 H   0  0  0  0  0  0  0  0  0  0  0  0
   -5.7187   -7.1519   23.2013 H   0  0  0  0  0  0  0  0  0  0  0  0
   -8.1228   -6.1025   23.3441 H   0  0  0  0  0  0  0  0  0  0  0  0
    0.3642  -10.5664   19.4230 H   0  0  0  0  0  0  0  0  0  0  0  0
   -2.0596  -10.6334   20.1771 H   0  0  0  0  0  0  0  0  0  0  0  0
    2.9937   -8.8636   21.2967 H   0  0  0  0  0  0  0  0  0  0  0  0
    2.6234   -9.8348   19.8573 H   0  0  0  0  0  0  0  0  0  0  0  0
  -12.6004  -12.8401   25.7506 H   0  0  0  0  0  0  0  0  0  0  0  0
  -16.6528   -9.1613   26.6972 H   0  0  0  0  0  0  0  0  0  0  0  0
    0.8558   -8.2712   18.3025 H   0  0  0  0  0  0  0  0  0  0  0  0
    2.4901   -8.5595   17.6388 H   0  0  0  0  0  0  0  0  0  0  0  0
    1.1136   -5.8478   18.0978 H   0  0  0  0  0  0  0  0  0  0  0  0
    1.5667   -6.5974   16.5187 H   0  0  0  0  0  0  0  0  0  0  0  0
    4.7381   -5.2568   19.1174 H   0  0  0  0  0  0  0  0  0  0  0  0
    3.0635   -5.0824   19.7017 H   0  0  0  0  0  0  0  0  0  0  0  0
    4.5016   -7.7399   19.0795 H   0  0  0  0  0  0  0  0  0  0  0  0
    4.1401   -7.1097   20.7135 H   0  0  0  0  0  0  0  0  0  0  0  0
    1.8286   -7.0110   20.0046 H   0  0  0  0  0  0  0  0  0  0  0  0
    4.8649   -7.2246   17.4871 H   0  0  0  0  0  0  0  0  0  0  0  0
    3.6697   -7.3371   16.1649 H   0  0  0  0  0  0  0  0  0  0  0  0
    5.5172   -5.1531   16.6446 H   0  0  0  0  0  0  0  0  0  0  0  0
  1  2  1  0
  1  4  1  0
  1 26  1  0
  2  9  2  0
  2 39  1  0
  3  6  1  0
 21  3  1  6
  4  5  2  0
  4 24  1  0
  5  6  1  0
  5 22  1  0
  7 21  1  0
  7 25  1  0
  8 10  1  0
  8 14  1  0
  8 27  2  0
 11 39  1  0
 11 40  1  0
 11 42  2  0
 12 44  1  0
 12 45  1  0
 12 48  1  0
 13 41  2  0
 13 42  1  0
 14 15  1  0
 14 38  2  0
 15 16  2  0
 15 17  1  0
 16 26  1  0
 17 28  2  0
 17 29  1  0
 18 19  2  0
 18 33  1  0
 18 36  1  0
 19 20  1  0
 20 34  2  0
 21 22  1  0
 21 25  1  0
 22 23  1  0
 23 24  2  0
 26 38  1  0
 27 28  1  0
 27 32  1  0
 29 30  1  0
 29 31  1  0
 32 33  3  0
 34 35  1  0
 34 37  1  0
 35 36  2  0
 47 37  1  0
 40 41  1  0
 43 44  1  0
 43 47  1  0
 45 46  1  0
 46 47  1  0
 48 49  1  0
  1 50  1  1
  3 51  1  0
  3 52  1  0
  6 53  1  0
  6 54  1  0
  7 55  1  0
  7 56  1  0
 10 57  1  0
 10 58  1  0
 10 59  1  0
 12 60  1  6
 13 61  1  0
 16 62  1  0
 19 63  1  0
 20 64  1  0
 23 65  1  0
 25 66  1  0
 25 67  1  0
 28 68  1  0
 29 69  1  6
 35 70  1  0
 36 71  1  0
 37 72  1  0
 37 73  1  0
 39 74  1  0
 41 75  1  0
 43 76  1  0
 43 77  1  0
 44 78  1  0
 44 79  1  0
 45 80  1  0
 45 81  1  0
 46 82  1  0
 46 83  1  0
 47 84  1  1
 48 85  1  0
 48 86  1  0
 49 87  1  0
M  CHG  1  47   1
M  END
>  <filename_input>  (18) 
8A2D_KXY_docked.sdf

>  <pdb_id>  (18) 
8A2D_KXY

>  <pose_rank>  (18) 
17

>  <num_atoms_heavy>  (18) 
49

>  <num_torsions>  (18) 
9

>  <pose>  (18) 
[-6.286267069247335, -10.487823022317237, 22.91897932908896, -0.42067892863932876, 0.03193454883043143, 0.7271324644235173, 0.8293585759803147, 0.4738688977032616, 0.5572961389726364, 0.31604502235949095, 1.3242190067136146, -1.0052400905795897, 1.543904785590768, 0.15319125203839518, -0.3268749055910232]

>  <energy>  (18) 
-523.3961097992471

>  <inter_energy>  (18) 
-604.2401702861529

>  <intra_energy>  (18) 
93.15521327620176

>  <rmsd>  (18) 
6.75496

>  <sdf_rank>  (18) 
0

$$$$

     RDKit          3D

 87 94  0  0  0  0  0  0  0  0999 V2000
  -12.8925  -10.5873   24.3210 C   0  0  1  0  0  0  0  0  0  0  0  0
  -13.6292  -10.8637   23.0606 C   0  0  0  0  0  0  0  0  0  0  0  0
   -9.8437  -14.3488   24.4740 C   0  0  0  0  0  0  0  0  0  0  0  0
  -12.5534  -11.8292   25.0718 C   0  0  0  0  0  0  0  0  0  0  0  0
  -11.6161  -12.7280   24.7989 C   0  0  0  0  0  0  0  0  0  0  0  0
  -10.4960  -13.1326   23.8222 C   0  0  0  0  0  0  0  0  0  0  0  0
  -11.3213  -16.2208   25.6524 C   0  0  0  0  0  0  0  0  0  0  0  0
   -8.2290   -9.7845   23.3515 C   0  0  0  0  0  0  0  0  0  0  0  0
  -14.5250  -10.1275   22.6334 O   0  0  0  0  0  0  0  0  0  0  0  0
   -7.6954  -11.2212   23.2668 C   0  0  0  0  0  0  0  0  0  0  0  0
  -13.7861  -12.3054   21.1584 C   0  0  0  0  0  0  0  0  0  0  0  0
    1.7797  -10.5817   17.7247 C   0  0  1  0  0  0  0  0  0  0  0  0
  -14.0383  -13.5622   19.3284 C   0  0  0  0  0  0  0  0  0  0  0  0
   -9.5573   -9.6050   23.6452 C   0  0  0  0  0  0  0  0  0  0  0  0
  -10.1344   -8.3042   23.7481 C   0  0  0  0  0  0  0  0  0  0  0  0
  -11.4909   -8.4974   23.9836 C   0  0  0  0  0  0  0  0  0  0  0  0
   -9.3062   -7.1340   23.5778 C   0  0  0  0  0  0  0  0  0  0  0  0
   -3.4072   -9.0322   22.5902 C   0  0  0  0  0  0  0  0  0  0  0  0
   -3.0330   -9.9521   21.6429 C   0  0  0  0  0  0  0  0  0  0  0  0
   -1.6353  -10.1084   21.3705 C   0  0  0  0  0  0  0  0  0  0  0  0
  -10.7969  -14.7863   25.5739 C   0  0  2  0  0  0  0  0  0  0  0  0
  -11.6922  -13.7152   25.7592 N   0  0  0  0  0  0  0  0  0  0  0  0
  -12.6908  -13.3604   26.5726 C   0  0  0  0  0  0  0  0  0  0  0  0
  -13.2371  -12.2106   26.2003 N   0  0  0  0  0  0  0  0  0  0  0  0
  -10.3567  -15.6750   26.7404 C   0  0  0  0  0  0  0  0  0  0  0  0
  -11.6567   -9.8400   23.9871 N   0  0  0  0  0  0  0  0  0  0  0  0
   -7.4474   -8.6556   23.2366 C   0  0  0  0  0  0  0  0  0  0  0  0
   -7.9705   -7.3807   23.3381 C   0  0  0  0  0  0  0  0  0  0  0  0
   -9.7990   -5.7687   23.7754 C   0  0  1  0  0  0  0  0  0  0  0  0
   -9.9883   -5.5236   25.1326 F   0  0  0  0  0  0  0  0  0  0  0  0
   -8.8496   -4.8468   23.4518 F   0  0  0  0  0  0  0  0  0  0  0  0
   -6.0037   -8.7679   22.9880 C   0  0  0  0  0  0  0  0  0  0  0  0
   -4.8432   -8.8609   22.8117 C   0  0  0  0  0  0  0  0  0  0  0  0
   -0.7686   -9.2802   22.0096 C   0  0  0  0  0  0  0  0  0  0  0  0
   -1.1494   -8.3116   22.9381 C   0  0  0  0  0  0  0  0  0  0  0  0
   -2.5220   -8.1735   23.2138 C   0  0  0  0  0  0  0  0  0  0  0  0
    0.7314   -9.4915   21.7224 C   0  0  0  0  0  0  0  0  0  0  0  0
  -10.5131  -10.5456   23.8108 N   0  0  0  0  0  0  0  0  0  0  0  0
  -13.2529  -11.9675   22.3642 N   0  0  0  0  0  0  0  0  0  0  0  0
  -15.0641  -11.4903   20.3611 S   0  0  0  0  0  0  0  0  0  0  0  0
  -15.0040  -12.6583   19.0647 C   0  0  0  0  0  0  0  0  0  0  0  0
  -13.3660  -13.3572   20.5193 N   0  0  0  0  0  0  0  0  0  0  0  0
    1.4793  -11.2483   20.1470 C   0  0  0  0  0  0  0  0  0  0  0  0
    1.3030  -11.6851   18.6831 C   0  0  0  0  0  0  0  0  0  0  0  0
    1.0501   -9.2497   17.9840 C   0  0  0  0  0  0  0  0  0  0  0  0
    1.3219   -8.8500   19.4395 C   0  0  0  0  0  0  0  0  0  0  0  0
    0.8336   -9.9312   20.3177 N   0  0  2  0  0  0  0  0  0  0  0  0
    3.2850  -10.3870   17.9173 C   0  0  0  0  0  0  0  0  0  0  0  0
    3.8118   -9.8186   16.7246 O   0  0  0  0  0  0  0  0  0  0  0  0
  -13.5445   -9.9931   24.9781 H   0  0  0  0  0  0  0  0  0  0  0  0
   -9.7125  -15.1548   23.7371 H   0  0  0  0  0  0  0  0  0  0  0  0
   -8.8464  -14.1102   24.8721 H   0  0  0  0  0  0  0  0  0  0  0  0
   -9.7679  -12.3163   23.7054 H   0  0  0  0  0  0  0  0  0  0  0  0
  -10.8781  -13.3520   22.8143 H   0  0  0  0  0  0  0  0  0  0  0  0
  -12.3773  -16.4091   25.8962 H   0  0  0  0  0  0  0  0  0  0  0  0
  -11.3244  -17.0887   24.9765 H   0  0  0  0  0  0  0  0  0  0  0  0
   -7.5480  -11.6180   24.2821 H   0  0  0  0  0  0  0  0  0  0  0  0
   -8.4198  -11.8503   22.7288 H   0  0  0  0  0  0  0  0  0  0  0  0
   -6.7359  -11.2248   22.7288 H   0  0  0  0  0  0  0  0  0  0  0  0
    1.5546  -10.8898   16.6930 H   0  0  0  0  0  0  0  0  0  0  0  0
  -13.8041  -14.3960   18.6503 H   0  0  0  0  0  0  0  0  0  0  0  0
  -12.2612   -7.7267   24.1343 H   0  0  0  0  0  0  0  0  0  0  0  0
   -3.7844  -10.5519   21.1085 H   0  0  0  0  0  0  0  0  0  0  0  0
   -1.2757  -10.8738   20.6670 H   0  0  0  0  0  0  0  0  0  0  0  0
  -13.0190  -13.9484   27.4424 H   0  0  0  0  0  0  0  0  0  0  0  0
  -10.7278  -15.4753   27.7564 H   0  0  0  0  0  0  0  0  0  0  0  0
   -9.3903  -15.9934   27.1582 H   0  0  0  0  0  0  0  0  0  0  0  0
   -7.2907   -6.5236   23.2226 H   0  0  0  0  0  0  0  0  0  0  0  0
  -10.7097   -5.6882   23.1638 H   0  0  0  0  0  0  0  0  0  0  0  0
   -0.4022   -7.6774   23.4376 H   0  0  0  0  0  0  0  0  0  0  0  0
   -2.8820   -7.4008   23.9090 H   0  0  0  0  0  0  0  0  0  0  0  0
    1.2817   -8.5500   21.8664 H   0  0  0  0  0  0  0  0  0  0  0  0
    1.1646  -10.2380   22.4043 H   0  0  0  0  0  0  0  0  0  0  0  0
  -12.5288  -12.5785   22.7682 H   0  0  0  0  0  0  0  0  0  0  0  0
  -15.6506  -12.6571   18.1748 H   0  0  0  0  0  0  0  0  0  0  0  0
    1.0065  -11.9839   20.8144 H   0  0  0  0  0  0  0  0  0  0  0  0
    2.5485  -11.1821   20.3972 H   0  0  0  0  0  0  0  0  0  0  0  0
    0.2395  -11.8927   18.4940 H   0  0  0  0  0  0  0  0  0  0  0  0
    1.9056  -12.5888   18.5090 H   0  0  0  0  0  0  0  0  0  0  0  0
    1.4320   -8.4739   17.3041 H   0  0  0  0  0  0  0  0  0  0  0  0
   -0.0301   -9.3594   17.8080 H   0  0  0  0  0  0  0  0  0  0  0  0
    2.4022   -8.7080   19.5903 H   0  0  0  0  0  0  0  0  0  0  0  0
    0.8052   -7.9081   19.6759 H   0  0  0  0  0  0  0  0  0  0  0  0
   -0.1232  -10.1209   19.9870 H   0  0  0  0  0  0  0  0  0  0  0  0
    3.4683   -9.7110   18.7655 H   0  0  0  0  0  0  0  0  0  0  0  0
    3.7708  -11.3513   18.1274 H   0  0  0  0  0  0  0  0  0  0  0  0
    4.4661   -9.1126   16.9565 H   0  0  0  0  0  0  0  0  0  0  0  0
  1  2  1  0
  1  4  1  0
  1 26  1  0
  2  9  2  0
  2 39  1  0
  3  6  1  0
 21  3  1  6
  4  5  2  0
  4 24  1  0
  5  6  1  0
  5 22  1  0
  7 21  1  0
  7 25  1  0
  8 10  1  0
  8 14  1  0
  8 27  2  0
 11 39  1  0
 11 40  1  0
 11 42  2  0
 12 44  1  0
 12 45  1  0
 12 48  1  0
 13 41  2  0
 13 42  1  0
 14 15  1  0
 14 38  2  0
 15 16  2  0
 15 17  1  0
 16 26  1  0
 17 28  2  0
 17 29  1  0
 18 19  2  0
 18 33  1  0
 18 36  1  0
 19 20  1  0
 20 34  2  0
 21 22  1  0
 21 25  1  0
 22 23  1  0
 23 24  2  0
 26 38  1  0
 27 28  1  0
 27 32  1  0
 29 30  1  0
 29 31  1  0
 32 33  3  0
 34 35  1  0
 34 37  1  0
 35 36  2  0
 47 37  1  0
 40 41  1  0
 43 44  1  0
 43 47  1  0
 45 46  1  0
 46 47  1  0
 48 49  1  0
  1 50  1  1
  3 51  1  0
  3 52  1  0
  6 53  1  0
  6 54  1  0
  7 55  1  0
  7 56  1  0
 10 57  1  0
 10 58  1  0
 10 59  1  0
 12 60  1  6
 13 61  1  0
 16 62  1  0
 19 63  1  0
 20 64  1  0
 23 65  1  0
 25 66  1  0
 25 67  1  0
 28 68  1  0
 29 69  1  6
 35 70  1  0
 36 71  1  0
 37 72  1  0
 37 73  1  0
 39 74  1  0
 41 75  1  0
 43 76  1  0
 43 77  1  0
 44 78  1  0
 44 79  1  0
 45 80  1  0
 45 81  1  0
 46 82  1  0
 46 83  1  0
 47 84  1  6
 48 85  1  0
 48 86  1  0
 49 87  1  0
M  CHG  1  47   1
M  END
>  <filename_input>  (19) 
8A2D_KXY_docked.sdf

>  <pdb_id>  (19) 
8A2D_KXY

>  <pose_rank>  (19) 
18

>  <num_atoms_heavy>  (19) 
49

>  <num_torsions>  (19) 
9

>  <pose>  (19) 
[-8.22900815878844, -9.784477897005555, 23.351458940805912, -0.6128272913001633, -0.018305885608229287, 0.582464283145891, 2.1436682007955996, -0.41325524532803765, -1.616150320996997, 2.2181944541196494, 0.527556313172881, -0.6452897039493765, 3.03053696056873, -17.450503145495805, 3.9744778994845302]

>  <energy>  (19) 
-444.99201672010105

>  <inter_energy>  (19) 
-542.0487380347633

>  <intra_energy>  (19) 
97.89172997632721

>  <rmsd>  (19) 
7.35897

>  <sdf_rank>  (19) 
0

$$$$

     RDKit          3D

 87 94  0  0  0  0  0  0  0  0999 V2000
    3.7553  -14.6725   18.6907 C   0  0  1  0  0  0  0  0  0  0  0  0
    3.2651  -15.3467   17.4606 C   0  0  0  0  0  0  0  0  0  0  0  0
    7.6018  -14.4652   15.7532 C   0  0  0  0  0  0  0  0  0  0  0  0
    5.2163  -14.3827   18.6430 C   0  0  0  0  0  0  0  0  0  0  0  0
    6.0419  -14.4734   17.6081 C   0  0  0  0  0  0  0  0  0  0  0  0
    6.1681  -14.8411   16.1177 C   0  0  0  0  0  0  0  0  0  0  0  0
    9.6103  -14.9706   17.4226 C   0  0  0  0  0  0  0  0  0  0  0  0
    2.7363   -9.9531   18.5453 C   0  0  0  0  0  0  0  0  0  0  0  0
    3.3853  -16.5616   17.2697 O   0  0  0  0  0  0  0  0  0  0  0  0
    3.9278   -9.4204   17.7374 C   0  0  0  0  0  0  0  0  0  0  0  0
    2.0752  -15.0526   15.4065 C   0  0  0  0  0  0  0  0  0  0  0  0
   -2.6777   -0.3986   18.5933 C   0  0  1  0  0  0  0  0  0  0  0  0
    0.9754  -14.9244   13.4659 C   0  0  0  0  0  0  0  0  0  0  0  0
    2.6903  -11.2969   18.8188 C   0  0  0  0  0  0  0  0  0  0  0  0
    1.6219  -11.8746   19.5675 C   0  0  0  0  0  0  0  0  0  0  0  0
    1.8595  -13.2443   19.5919 C   0  0  0  0  0  0  0  0  0  0  0  0
    0.5719  -11.0328   20.0901 C   0  0  0  0  0  0  0  0  0  0  0  0
    1.7518   -5.0804   18.6132 C   0  0  0  0  0  0  0  0  0  0  0  0
    1.6809   -4.5755   17.3390 C   0  0  0  0  0  0  0  0  0  0  0  0
    1.6264   -3.1528   17.1799 C   0  0  0  0  0  0  0  0  0  0  0  0
    8.3151  -14.2351   17.0754 C   0  0  2  0  0  0  0  0  0  0  0  0
    7.3026  -14.1278   18.0482 N   0  0  0  0  0  0  0  0  0  0  0  0
    7.1740  -13.8473   19.3480 C   0  0  0  0  0  0  0  0  0  0  0  0
    5.9174  -13.9765   19.7521 N   0  0  0  0  0  0  0  0  0  0  0  0
    9.6171  -13.4365   17.1810 C   0  0  0  0  0  0  0  0  0  0  0  0
    2.9918  -13.4149   18.8716 N   0  0  0  0  0  0  0  0  0  0  0  0
    1.7489   -9.1614   19.0903 C   0  0  0  0  0  0  0  0  0  0  0  0
    0.7039   -9.6853   19.8269 C   0  0  0  0  0  0  0  0  0  0  0  0
   -0.4976  -11.5323   20.9575 C   0  0  1  0  0  0  0  0  0  0  0  0
   -1.1229  -12.6234   20.3606 F   0  0  0  0  0  0  0  0  0  0  0  0
    0.0049  -12.0837   22.0974 F   0  0  0  0  0  0  0  0  0  0  0  0
    1.7664   -7.7052   18.8968 C   0  0  0  0  0  0  0  0  0  0  0  0
    1.7574   -6.5375   18.7456 C   0  0  0  0  0  0  0  0  0  0  0  0
    1.5684   -2.3913   18.3035 C   0  0  0  0  0  0  0  0  0  0  0  0
    1.5925   -2.9038   19.6004 C   0  0  0  0  0  0  0  0  0  0  0  0
    1.6624   -4.3008   19.7507 C   0  0  0  0  0  0  0  0  0  0  0  0
    1.5430   -0.8627   18.1041 C   0  0  0  0  0  0  0  0  0  0  0  0
    3.5386  -12.2650   18.4075 N   0  0  0  0  0  0  0  0  0  0  0  0
    2.6398  -14.5631   16.5441 N   0  0  0  0  0  0  0  0  0  0  0  0
    2.1320  -16.6803   14.8767 S   0  0  0  0  0  0  0  0  0  0  0  0
    1.2432  -16.2460   13.4380 C   0  0  0  0  0  0  0  0  0  0  0  0
    1.4607  -14.2609   14.5779 N   0  0  0  0  0  0  0  0  0  0  0  0
   -0.3515   -0.2595   19.5788 C   0  0  0  0  0  0  0  0  0  0  0  0
   -1.7420    0.3947   19.5197 C   0  0  0  0  0  0  0  0  0  0  0  0
   -2.0868   -0.5435   17.1778 C   0  0  0  0  0  0  0  0  0  0  0  0
   -0.7353   -1.2557   17.3122 C   0  0  0  0  0  0  0  0  0  0  0  0
    0.1296   -0.4492   18.1955 N   0  0  2  0  0  0  0  0  0  0  0  0
   -2.9012   -1.7855   19.1993 C   0  0  0  0  0  0  0  0  0  0  0  0
   -3.9455   -2.4210   18.4722 O   0  0  0  0  0  0  0  0  0  0  0  0
    3.5990  -15.3519   19.5415 H   0  0  0  0  0  0  0  0  0  0  0  0
    8.0825  -15.2821   15.1951 H   0  0  0  0  0  0  0  0  0  0  0  0
    7.6370  -13.5721   15.1120 H   0  0  0  0  0  0  0  0  0  0  0  0
    5.4499  -14.2677   15.5133 H   0  0  0  0  0  0  0  0  0  0  0  0
    5.9525  -15.9030   15.9285 H   0  0  0  0  0  0  0  0  0  0  0  0
    9.7627  -15.3697   18.4363 H   0  0  0  0  0  0  0  0  0  0  0  0
   10.1565  -15.8290   17.0044 H   0  0  0  0  0  0  0  0  0  0  0  0
    4.7107   -9.0704   18.4262 H   0  0  0  0  0  0  0  0  0  0  0  0
    4.3298  -10.2245   17.1035 H   0  0  0  0  0  0  0  0  0  0  0  0
    3.5966   -8.5846   17.1035 H   0  0  0  0  0  0  0  0  0  0  0  0
   -3.6291    0.1461   18.5032 H   0  0  0  0  0  0  0  0  0  0  0  0
    0.4155  -14.4149   12.6678 H   0  0  0  0  0  0  0  0  0  0  0  0
    1.2581  -14.0199   20.0886 H   0  0  0  0  0  0  0  0  0  0  0  0
    1.6662   -5.2437   16.4654 H   0  0  0  0  0  0  0  0  0  0  0  0
    1.6314   -2.6922   16.1810 H   0  0  0  0  0  0  0  0  0  0  0  0
    8.0063  -13.5468   20.0015 H   0  0  0  0  0  0  0  0  0  0  0  0
    9.7740  -12.7463   18.0230 H   0  0  0  0  0  0  0  0  0  0  0  0
   10.1696  -12.7524   16.5201 H   0  0  0  0  0  0  0  0  0  0  0  0
   -0.0575   -8.9963   20.2214 H   0  0  0  0  0  0  0  0  0  0  0  0
   -1.1571  -10.6720   21.1445 H   0  0  0  0  0  0  0  0  0  0  0  0
    1.5581   -2.2384   20.4757 H   0  0  0  0  0  0  0  0  0  0  0  0
    1.6464   -4.7614   20.7495 H   0  0  0  0  0  0  0  0  0  0  0  0
    2.1347   -0.3677   18.8882 H   0  0  0  0  0  0  0  0  0  0  0  0
    1.9764   -0.5821   17.1328 H   0  0  0  0  0  0  0  0  0  0  0  0
    2.5904  -13.5492   16.7185 H   0  0  0  0  0  0  0  0  0  0  0  0
    0.9486  -16.9396   12.6367 H   0  0  0  0  0  0  0  0  0  0  0  0
    0.3435    0.3925   20.1284 H   0  0  0  0  0  0  0  0  0  0  0  0
   -0.4095   -1.2282   20.0967 H   0  0  0  0  0  0  0  0  0  0  0  0
   -1.6419    1.4215   19.1382 H   0  0  0  0  0  0  0  0  0  0  0  0
   -2.1716    0.4034   20.5323 H   0  0  0  0  0  0  0  0  0  0  0  0
   -2.7638   -1.1388   16.5475 H   0  0  0  0  0  0  0  0  0  0  0  0
   -1.9594    0.4432   16.7086 H   0  0  0  0  0  0  0  0  0  0  0  0
   -0.8833   -2.2547   17.7482 H   0  0  0  0  0  0  0  0  0  0  0  0
   -0.2666   -1.3675   16.3233 H   0  0  0  0  0  0  0  0  0  0  0  0
    0.0663    0.5067   17.8172 H   0  0  0  0  0  0  0  0  0  0  0  0
   -1.9784   -2.3793   19.1227 H   0  0  0  0  0  0  0  0  0  0  0  0
   -3.1738   -1.6985   20.2614 H   0  0  0  0  0  0  0  0  0  0  0  0
   -4.5955   -2.8165   19.1057 H   0  0  0  0  0  0  0  0  0  0  0  0
  1  2  1  0
  1  4  1  0
  1 26  1  0
  2  9  2  0
  2 39  1  0
  3  6  1  0
 21  3  1  6
  4  5  2  0
  4 24  1  0
  5  6  1  0
  5 22  1  0
  7 21  1  0
  7 25  1  0
  8 10  1  0
  8 14  1  0
  8 27  2  0
 11 39  1  0
 11 40  1  0
 11 42  2  0
 12 44  1  0
 12 45  1  0
 12 48  1  0
 13 41  2  0
 13 42  1  0
 14 15  1  0
 14 38  2  0
 15 16  2  0
 15 17  1  0
 16 26  1  0
 17 28  2  0
 17 29  1  0
 18 19  2  0
 18 33  1  0
 18 36  1  0
 19 20  1  0
 20 34  2  0
 21 22  1  0
 21 25  1  0
 22 23  1  0
 23 24  2  0
 26 38  1  0
 27 28  1  0
 27 32  1  0
 29 30  1  0
 29 31  1  0
 32 33  3  0
 34 35  1  0
 34 37  1  0
 35 36  2  0
 47 37  1  0
 40 41  1  0
 43 44  1  0
 43 47  1  0
 45 46  1  0
 46 47  1  0
 48 49  1  0
  1 50  1  1
  3 51  1  0
  3 52  1  0
  6 53  1  0
  6 54  1  0
  7 55  1  0
  7 56  1  0
 10 57  1  0
 10 58  1  0
 10 59  1  0
 12 60  1  6
 13 61  1  0
 16 62  1  0
 19 63  1  0
 20 64  1  0
 23 65  1  0
 25 66  1  0
 25 67  1  0
 28 68  1  0
 29 69  1  1
 35 70  1  0
 36 71  1  0
 37 72  1  0
 37 73  1  0
 39 74  1  0
 41 75  1  0
 43 76  1  0
 43 77  1  0
 44 78  1  0
 44 79  1  0
 45 80  1  0
 45 81  1  0
 46 82  1  0
 46 83  1  0
 47 84  1  6
 48 85  1  0
 48 86  1  0
 49 87  1  0
M  CHG  1  47   1
M  END
>  <filename_input>  (20) 
8A2D_KXY_docked.sdf

>  <pdb_id>  (20) 
8A2D_KXY

>  <pose_rank>  (20) 
19

>  <num_atoms_heavy>  (20) 
49

>  <num_torsions>  (20) 
9

>  <pose>  (20) 
[2.7363032671468894, -9.953078067287182, 18.54526079882032, -0.23838513168703782, 0.5265737499468404, -4.154828088720289, -0.048991232893748106, 3.782625096323125, 0.7381026282373156, -2.9374695672177777, 4.093506632264636, -0.41224027813832953, 3.0024080454121735, 0.27665974476337046, -3.402371917579217]

>  <energy>  (20) 
-419.86484850035725

>  <inter_energy>  (20) 
-471.10864979680895

>  <intra_energy>  (20) 
57.53931491123491

>  <rmsd>  (20) 
13.5465

>  <sdf_rank>  (20) 
0

$$$$

     RDKit          3D

 87 94  0  0  0  0  0  0  0  0999 V2000
   -3.9822   -9.7379   20.8210 C   0  0  1  0  0  0  0  0  0  0  0  0
   -4.8006  -10.5031   19.8449 C   0  0  0  0  0  0  0  0  0  0  0  0
   -7.7946  -11.0295   23.5163 C   0  0  0  0  0  0  0  0  0  0  0  0
   -4.7231   -9.4342   22.0778 C   0  0  0  0  0  0  0  0  0  0  0  0
   -5.8411   -9.9874   22.5305 C   0  0  0  0  0  0  0  0  0  0  0  0
   -6.9466  -11.0218   22.2473 C   0  0  0  0  0  0  0  0  0  0  0  0
   -8.3859   -8.7616   24.7746 C   0  0  0  0  0  0  0  0  0  0  0  0
   -0.6235  -12.0230   23.4344 C   0  0  0  0  0  0  0  0  0  0  0  0
   -5.3339   -9.9785   18.8615 O   0  0  0  0  0  0  0  0  0  0  0  0
   -1.2470  -11.9574   24.8354 C   0  0  0  0  0  0  0  0  0  0  0  0
   -5.5756  -12.6768   19.2157 C   0  0  0  0  0  0  0  0  0  0  0  0
    8.0885  -13.9023   31.2419 C   0  0  1  0  0  0  0  0  0  0  0  0
   -6.3614  -14.6450   18.5081 C   0  0  0  0  0  0  0  0  0  0  0  0
   -1.3031  -11.4362   22.3967 C   0  0  0  0  0  0  0  0  0  0  0  0
   -0.7932  -11.4464   21.0642 C   0  0  0  0  0  0  0  0  0  0  0  0
   -1.7584  -10.8337   20.2731 C   0  0  0  0  0  0  0  0  0  0  0  0
    0.4872  -12.0537   20.7882 C   0  0  0  0  0  0  0  0  0  0  0  0
    2.8546  -14.2653   26.1507 C   0  0  0  0  0  0  0  0  0  0  0  0
    2.9372  -15.6348   26.1123 C   0  0  0  0  0  0  0  0  0  0  0  0
    3.7395  -16.2895   27.1021 C   0  0  0  0  0  0  0  0  0  0  0  0
   -7.3681   -9.8010   24.3029 C   0  0  2  0  0  0  0  0  0  0  0  0
   -6.1615   -9.3676   23.7204 N   0  0  0  0  0  0  0  0  0  0  0  0
   -5.2095   -8.4534   23.9265 C   0  0  0  0  0  0  0  0  0  0  0  0
   -4.3039   -8.4663   22.9576 N   0  0  0  0  0  0  0  0  0  0  0  0
   -7.6343   -9.6500   25.8032 C   0  0  0  0  0  0  0  0  0  0  0  0
   -2.7617  -10.5219   21.1255 N   0  0  0  0  0  0  0  0  0  0  0  0
    0.6161  -12.5576   23.1581 C   0  0  0  0  0  0  0  0  0  0  0  0
    1.1445  -12.5779   21.8816 C   0  0  0  0  0  0  0  0  0  0  0  0
    1.1273  -12.0091   19.4714 C   0  0  1  0  0  0  0  0  0  0  0  0
    2.4836  -11.7281   19.6116 F   0  0  0  0  0  0  0  0  0  0  0  0
    1.1528  -13.2409   18.8901 F   0  0  0  0  0  0  0  0  0  0  0  0
    1.4325  -13.1448   24.2291 C   0  0  0  0  0  0  0  0  0  0  0  0
    2.0673  -13.6226   25.0981 C   0  0  0  0  0  0  0  0  0  0  0  0
    4.4342  -15.5103   27.9715 C   0  0  0  0  0  0  0  0  0  0  0  0
    4.3898  -14.1163   27.9833 C   0  0  0  0  0  0  0  0  0  0  0  0
    3.5875  -13.4791   27.0192 C   0  0  0  0  0  0  0  0  0  0  0  0
    5.2639  -16.2409   29.0462 C   0  0  0  0  0  0  0  0  0  0  0  0
   -2.5183  -10.8457   22.4187 N   0  0  0  0  0  0  0  0  0  0  0  0
   -4.9200  -11.8383   20.0640 N   0  0  0  0  0  0  0  0  0  0  0  0
   -6.4363  -12.2122   17.8098 S   0  0  0  0  0  0  0  0  0  0  0  0
   -6.8867  -13.8762   17.5323 C   0  0  0  0  0  0  0  0  0  0  0  0
   -5.6327  -13.9531   19.4581 N   0  0  0  0  0  0  0  0  0  0  0  0
    7.5737  -15.3743   29.2494 C   0  0  0  0  0  0  0  0  0  0  0  0
    8.3390  -14.1351   29.7432 C   0  0  0  0  0  0  0  0  0  0  0  0
    6.5853  -13.7700   31.5530 C   0  0  0  0  0  0  0  0  0  0  0  0
    5.9024  -15.0626   31.0898 C   0  0  0  0  0  0  0  0  0  0  0  0
    6.1583  -15.2323   29.6460 N   0  0  2  0  0  0  0  0  0  0  0  0
    8.6708  -15.0828   32.0217 C   0  0  0  0  0  0  0  0  0  0  0  0
   10.0746  -15.1119   31.7938 O   0  0  0  0  0  0  0  0  0  0  0  0
   -3.7233   -8.7691   20.3689 H   0  0  0  0  0  0  0  0  0  0  0  0
   -8.8636  -10.9711   23.2637 H   0  0  0  0  0  0  0  0  0  0  0  0
   -7.6501  -11.9532   24.0958 H   0  0  0  0  0  0  0  0  0  0  0  0
   -6.5119  -12.0155   22.0638 H   0  0  0  0  0  0  0  0  0  0  0  0
   -7.5347  -10.7720   21.3519 H   0  0  0  0  0  0  0  0  0  0  0  0
   -8.1538   -7.6890   24.6991 H   0  0  0  0  0  0  0  0  0  0  0  0
   -9.4418   -8.5469   24.5533 H   0  0  0  0  0  0  0  0  0  0  0  0
   -0.4546  -12.0407   25.5937 H   0  0  0  0  0  0  0  0  0  0  0  0
   -1.7727  -10.9989   24.9583 H   0  0  0  0  0  0  0  0  0  0  0  0
   -1.9607  -12.7854   24.9583 H   0  0  0  0  0  0  0  0  0  0  0  0
    8.5743  -12.9609   31.5381 H   0  0  0  0  0  0  0  0  0  0  0  0
   -6.5014  -15.7354   18.5453 H   0  0  0  0  0  0  0  0  0  0  0  0
   -1.7157  -10.6438   19.1905 H   0  0  0  0  0  0  0  0  0  0  0  0
    2.4029  -16.2127   25.3438 H   0  0  0  0  0  0  0  0  0  0  0  0
    3.7913  -17.3869   27.1565 H   0  0  0  0  0  0  0  0  0  0  0  0
   -5.1803   -7.7747   24.7917 H   0  0  0  0  0  0  0  0  0  0  0  0
   -6.8683   -9.2084   26.4575 H   0  0  0  0  0  0  0  0  0  0  0  0
   -7.9340  -10.3285   26.6154 H   0  0  0  0  0  0  0  0  0  0  0  0
    2.1345  -13.0330   21.7305 H   0  0  0  0  0  0  0  0  0  0  0  0
    0.5630  -11.2652   18.8897 H   0  0  0  0  0  0  0  0  0  0  0  0
    4.9624  -13.5351   28.7211 H   0  0  0  0  0  0  0  0  0  0  0  0
    3.5447  -12.3817   26.9582 H   0  0  0  0  0  0  0  0  0  0  0  0
    4.6006  -16.6648   29.8145 H   0  0  0  0  0  0  0  0  0  0  0  0
    5.8385  -17.0702   28.6081 H   0  0  0  0  0  0  0  0  0  0  0  0
   -4.4938  -12.2355   20.9134 H   0  0  0  0  0  0  0  0  0  0  0  0
   -7.5009  -14.2395   16.6952 H   0  0  0  0  0  0  0  0  0  0  0  0
    7.6480  -15.4457   28.1542 H   0  0  0  0  0  0  0  0  0  0  0  0
    8.0021  -16.2860   29.6915 H   0  0  0  0  0  0  0  0  0  0  0  0
    8.0003  -13.2534   29.1794 H   0  0  0  0  0  0  0  0  0  0  0  0
    9.4153  -14.2988   29.5861 H   0  0  0  0  0  0  0  0  0  0  0  0
    6.4363  -13.6333   32.6342 H   0  0  0  0  0  0  0  0  0  0  0  0
    6.1579  -12.8991   31.0344 H   0  0  0  0  0  0  0  0  0  0  0  0
    6.3140  -15.9194   31.6433 H   0  0  0  0  0  0  0  0  0  0  0  0
    4.8200  -15.0071   31.2781 H   0  0  0  0  0  0  0  0  0  0  0  0
    5.9133  -14.3219   29.2310 H   0  0  0  0  0  0  0  0  0  0  0  0
    8.4697  -14.9561   33.0957 H   0  0  0  0  0  0  0  0  0  0  0  0
    8.2104  -16.0246   31.6884 H   0  0  0  0  0  0  0  0  0  0  0  0
   10.5497  -15.1217   32.6622 H   0  0  0  0  0  0  0  0  0  0  0  0
  1  2  1  0
  1  4  1  0
  1 26  1  0
  2  9  2  0
  2 39  1  0
  3  6  1  0
 21  3  1  6
  4  5  2  0
  4 24  1  0
  5  6  1  0
  5 22  1  0
  7 21  1  0
  7 25  1  0
  8 10  1  0
  8 14  1  0
  8 27  2  0
 11 39  1  0
 11 40  1  0
 11 42  2  0
 12 44  1  0
 12 45  1  0
 12 48  1  0
 13 41  2  0
 13 42  1  0
 14 15  1  0
 14 38  2  0
 15 16  2  0
 15 17  1  0
 16 26  1  0
 17 28  2  0
 17 29  1  0
 18 19  2  0
 18 33  1  0
 18 36  1  0
 19 20  1  0
 20 34  2  0
 21 22  1  0
 21 25  1  0
 22 23  1  0
 23 24  2  0
 26 38  1  0
 27 28  1  0
 27 32  1  0
 29 30  1  0
 29 31  1  0
 32 33  3  0
 34 35  1  0
 34 37  1  0
 35 36  2  0
 47 37  1  0
 40 41  1  0
 43 44  1  0
 43 47  1  0
 45 46  1  0
 46 47  1  0
 48 49  1  0
  1 50  1  6
  3 51  1  0
  3 52  1  0
  6 53  1  0
  6 54  1  0
  7 55  1  0
  7 56  1  0
 10 57  1  0
 10 58  1  0
 10 59  1  0
 12 60  1  1
 13 61  1  0
 16 62  1  0
 19 63  1  0
 20 64  1  0
 23 65  1  0
 25 66  1  0
 25 67  1  0
 28 68  1  0
 29 69  1  6
 35 70  1  0
 36 71  1  0
 37 72  1  0
 37 73  1  0
 39 74  1  0
 41 75  1  0
 43 76  1  0
 43 77  1  0
 44 78  1  0
 44 79  1  0
 45 80  1  0
 45 81  1  0
 46 82  1  0
 46 83  1  0
 47 84  1  6
 48 85  1  0
 48 86  1  0
 49 87  1  0
M  CHG  1  47   1
M  END
>  <filename_input>  (21) 
8A2D_KXY_docked.sdf

>  <pdb_id>  (21) 
8A2D_KXY

>  <pose_rank>  (21) 
20

>  <num_atoms_heavy>  (21) 
49

>  <num_torsions>  (21) 
9

>  <pose>  (21) 
[-0.6235091116803496, -12.022962296409693, 23.43440584756362, 3.9241031298936044, -0.74615862738349, 0.9608009967995322, 3.265327639299125, 1.6265113238525106, 3.7252236772990592, -1.7368040892071743, 0.7722185525657409, -2.286766122624459, -3.751114358735337, 0.3771621246308866, -3.0401936934520686]

>  <energy>  (21) 
-372.19964823330116

>  <inter_energy>  (21) 
-417.2206811340854

>  <intra_energy>  (21) 
45.95519877234432

>  <rmsd>  (21) 
8.41294

>  <sdf_rank>  (21) 
0

$$$$

     RDKit          3D

 87 94  0  0  0  0  0  0  0  0999 V2000
   -8.0675  -11.4809   16.9187 C   0  0  1  0  0  0  0  0  0  0  0  0
   -7.7834  -10.8474   15.6049 C   0  0  0  0  0  0  0  0  0  0  0  0
  -11.5825  -14.7154   16.1124 C   0  0  0  0  0  0  0  0  0  0  0  0
   -8.3554  -12.9385   16.8028 C   0  0  0  0  0  0  0  0  0  0  0  0
   -9.5245  -13.5355   16.6088 C   0  0  0  0  0  0  0  0  0  0  0  0
  -11.0391  -13.3239   16.4256 C   0  0  0  0  0  0  0  0  0  0  0  0
  -10.6862  -16.8543   17.4156 C   0  0  0  0  0  0  0  0  0  0  0  0
   -3.4527  -11.1583   18.3087 C   0  0  0  0  0  0  0  0  0  0  0  0
   -6.6537  -10.4734   15.2723 O   0  0  0  0  0  0  0  0  0  0  0  0
   -2.7295  -11.3162   16.9640 C   0  0  0  0  0  0  0  0  0  0  0  0
   -8.7086  -10.2248   13.4889 C   0  0  0  0  0  0  0  0  0  0  0  0
    7.5952  -13.1406   16.8672 C   0  0  1  0  0  0  0  0  0  0  0  0
   -9.4366   -9.6008   11.4708 C   0  0  0  0  0  0  0  0  0  0  0  0
   -4.8234  -11.2223   18.3165 C   0  0  0  0  0  0  0  0  0  0  0  0
   -5.5743  -11.0906   19.5225 C   0  0  0  0  0  0  0  0  0  0  0  0
   -6.9141  -11.1343   19.1538 C   0  0  0  0  0  0  0  0  0  0  0  0
   -4.8892  -10.9214   20.7820 C   0  0  0  0  0  0  0  0  0  0  0  0
    1.2888  -11.0620   19.6836 C   0  0  0  0  0  0  0  0  0  0  0  0
    1.9221   -9.8635   19.4689 C   0  0  0  0  0  0  0  0  0  0  0  0
    3.3532   -9.8375   19.5278 C   0  0  0  0  0  0  0  0  0  0  0  0
  -10.4621  -15.6818   16.4595 C   0  0  2  0  0  0  0  0  0  0  0  0
   -9.3009  -14.8965   16.5940 N   0  0  0  0  0  0  0  0  0  0  0  0
   -7.9889  -15.0555   16.7888 C   0  0  0  0  0  0  0  0  0  0  0  0
   -7.3694  -13.8889   16.9085 N   0  0  0  0  0  0  0  0  0  0  0  0
  -10.4057  -17.1097   15.9096 C   0  0  0  0  0  0  0  0  0  0  0  0
   -6.9014  -11.2607   17.8069 N   0  0  0  0  0  0  0  0  0  0  0  0
   -2.8170  -11.0410   19.5255 C   0  0  0  0  0  0  0  0  0  0  0  0
   -3.5116  -10.9191   20.7138 C   0  0  0  0  0  0  0  0  0  0  0  0
   -5.5821  -10.8885   22.0722 C   0  0  1  0  0  0  0  0  0  0  0  0
   -5.1977  -11.9801   22.8459 F   0  0  0  0  0  0  0  0  0  0  0  0
   -5.1621   -9.8404   22.8343 F   0  0  0  0  0  0  0  0  0  0  0  0
   -1.3500  -11.0316   19.6048 C   0  0  0  0  0  0  0  0  0  0  0  0
   -0.1741  -11.0473   19.6649 C   0  0  0  0  0  0  0  0  0  0  0  0
    3.9942  -10.9850   19.8711 C   0  0  0  0  0  0  0  0  0  0  0  0
    3.3508  -12.1937   20.1364 C   0  0  0  0  0  0  0  0  0  0  0  0
    1.9462  -12.2174   20.0611 C   0  0  0  0  0  0  0  0  0  0  0  0
    5.5351  -10.9374   19.8955 C   0  0  0  0  0  0  0  0  0  0  0  0
   -5.6623  -11.3417   17.2640 N   0  0  0  0  0  0  0  0  0  0  0  0
   -8.8322  -10.7174   14.7516 N   0  0  0  0  0  0  0  0  0  0  0  0
   -7.2757   -9.5982   12.7906 S   0  0  0  0  0  0  0  0  0  0  0  0
   -8.1484   -9.2290   11.3241 C   0  0  0  0  0  0  0  0  0  0  0  0
   -9.7414  -10.1514   12.7021 N   0  0  0  0  0  0  0  0  0  0  0  0
    6.5465  -13.0768   19.1690 C   0  0  0  0  0  0  0  0  0  0  0  0
    6.7638  -13.9182   17.9003 C   0  0  0  0  0  0  0  0  0  0  0  0
    6.9447  -11.7889   16.5157 C   0  0  0  0  0  0  0  0  0  0  0  0
    6.8175  -10.9856   17.8159 C   0  0  0  0  0  0  0  0  0  0  0  0
    6.0003  -11.7651   18.7662 N   0  0  2  0  0  0  0  0  0  0  0  0
    8.9910  -12.9019   17.4463 C   0  0  0  0  0  0  0  0  0  0  0  0
    9.7887  -14.0439   17.1582 O   0  0  0  0  0  0  0  0  0  0  0  0
   -8.9723  -11.0159   17.3370 H   0  0  0  0  0  0  0  0  0  0  0  0
  -12.4732  -14.9257   16.7226 H   0  0  0  0  0  0  0  0  0  0  0  0
  -11.8847  -14.8057   15.0586 H   0  0  0  0  0  0  0  0  0  0  0  0
  -11.2376  -12.6323   15.5936 H   0  0  0  0  0  0  0  0  0  0  0  0
  -11.5107  -12.8804   17.3150 H   0  0  0  0  0  0  0  0  0  0  0  0
   -9.9244  -17.1050   18.1685 H   0  0  0  0  0  0  0  0  0  0  0  0
  -11.4777  -17.1447   18.1222 H   0  0  0  0  0  0  0  0  0  0  0  0
   -1.6691  -11.5479   17.1430 H   0  0  0  0  0  0  0  0  0  0  0  0
   -3.1922  -12.1345   16.3928 H   0  0  0  0  0  0  0  0  0  0  0  0
   -2.8089  -10.3796   16.3928 H   0  0  0  0  0  0  0  0  0  0  0  0
    7.6522  -13.7336   15.9425 H   0  0  0  0  0  0  0  0  0  0  0  0
  -10.1851   -9.4759   10.6745 H   0  0  0  0  0  0  0  0  0  0  0  0
   -7.7927  -11.0783   19.8132 H   0  0  0  0  0  0  0  0  0  0  0  0
    1.3475   -8.9496   19.2577 H   0  0  0  0  0  0  0  0  0  0  0  0
    3.9145   -8.9187   19.3026 H   0  0  0  0  0  0  0  0  0  0  0  0
   -7.4852  -16.0319   16.8431 H   0  0  0  0  0  0  0  0  0  0  0  0
   -9.4447  -17.5412   15.5930 H   0  0  0  0  0  0  0  0  0  0  0  0
  -10.9147  -17.6563   15.1020 H   0  0  0  0  0  0  0  0  0  0  0  0
   -2.9399  -10.8155   21.6478 H   0  0  0  0  0  0  0  0  0  0  0  0
   -6.6554  -10.8507   21.8342 H   0  0  0  0  0  0  0  0  0  0  0  0
    3.9220  -13.0973   20.3955 H   0  0  0  0  0  0  0  0  0  0  0  0
    1.3848  -13.1335   20.2971 H   0  0  0  0  0  0  0  0  0  0  0  0
    5.8847   -9.9013   19.7760 H   0  0  0  0  0  0  0  0  0  0  0  0
    5.9285  -11.3133   20.8515 H   0  0  0  0  0  0  0  0  0  0  0  0
   -9.7664  -11.0055   15.0759 H   0  0  0  0  0  0  0  0  0  0  0  0
   -7.7165   -8.7670   10.4241 H   0  0  0  0  0  0  0  0  0  0  0  0
    5.8363  -13.5865   19.8366 H   0  0  0  0  0  0  0  0  0  0  0  0
    7.4986  -12.9434   19.7036 H   0  0  0  0  0  0  0  0  0  0  0  0
    5.7866  -14.1693   17.4619 H   0  0  0  0  0  0  0  0  0  0  0  0
    7.3070  -14.8350   18.1731 H   0  0  0  0  0  0  0  0  0  0  0  0
    7.5755  -11.2440   15.7979 H   0  0  0  0  0  0  0  0  0  0  0  0
    5.9566  -11.9424   16.0573 H   0  0  0  0  0  0  0  0  0  0  0  0
    7.8159  -10.8085   18.2424 H   0  0  0  0  0  0  0  0  0  0  0  0
    6.3414  -10.0144   17.6155 H   0  0  0  0  0  0  0  0  0  0  0  0
    5.1675  -12.0403   18.2262 H   0  0  0  0  0  0  0  0  0  0  0  0
    9.4383  -12.0086   16.9859 H   0  0  0  0  0  0  0  0  0  0  0  0
    8.9312  -12.7425   18.5330 H   0  0  0  0  0  0  0  0  0  0  0  0
   10.0820  -14.4638   18.0054 H   0  0  0  0  0  0  0  0  0  0  0  0
  1  2  1  0
  1  4  1  0
  1 26  1  0
  2  9  2  0
  2 39  1  0
  3  6  1  0
 21  3  1  6
  4  5  2  0
  4 24  1  0
  5  6  1  0
  5 22  1  0
  7 21  1  0
  7 25  1  0
  8 10  1  0
  8 14  1  0
  8 27  2  0
 11 39  1  0
 11 40  1  0
 11 42  2  0
 12 44  1  0
 12 45  1  0
 12 48  1  0
 13 41  2  0
 13 42  1  0
 14 15  1  0
 14 38  2  0
 15 16  2  0
 15 17  1  0
 16 26  1  0
 17 28  2  0
 17 29  1  0
 18 19  2  0
 18 33  1  0
 18 36  1  0
 19 20  1  0
 20 34  2  0
 21 22  1  0
 21 25  1  0
 22 23  1  0
 23 24  2  0
 26 38  1  0
 27 28  1  0
 27 32  1  0
 29 30  1  0
 29 31  1  0
 32 33  3  0
 34 35  1  0
 34 37  1  0
 35 36  2  0
 47 37  1  0
 40 41  1  0
 43 44  1  0
 43 47  1  0
 45 46  1  0
 46 47  1  0
 48 49  1  0
  1 50  1  1
  3 51  1  0
  3 52  1  0
  6 53  1  0
  6 54  1  0
  7 55  1  0
  7 56  1  0
 10 57  1  0
 10 58  1  0
 10 59  1  0
 12 60  1  6
 13 61  1  0
 16 62  1  0
 19 63  1  0
 20 64  1  0
 23 65  1  0
 25 66  1  0
 25 67  1  0
 28 68  1  0
 29 69  1  6
 35 70  1  0
 36 71  1  0
 37 72  1  0
 37 73  1  0
 39 74  1  0
 41 75  1  0
 43 76  1  0
 43 77  1  0
 44 78  1  0
 44 79  1  0
 45 80  1  0
 45 81  1  0
 46 82  1  0
 46 83  1  0
 47 84  1  6
 48 85  1  0
 48 86  1  0
 49 87  1  0
M  CHG  1  47   1
M  END
>  <filename_input>  (22) 
8A2D_KXY_docked.sdf

>  <pdb_id>  (22) 
8A2D_KXY

>  <pose_rank>  (22) 
21

>  <num_atoms_heavy>  (22) 
49

>  <num_torsions>  (22) 
9

>  <pose>  (22) 
[-3.4526875989477865, -11.15827969475644, 18.30868414143682, -3.8553640860250407, 3.11750445571636, -1.7586029845919207, 2.892470954488422, -0.27898479246908015, -1.05283098636124, -0.2966677521955258, 0.8050566099315037, -1.8762670146121425, -2.2850036235729894, 4.817691901985637, -0.4270135522472326]

>  <energy>  (22) 
-357.3917999758603

>  <inter_energy>  (22) 
-409.26735620055507

>  <intra_energy>  (22) 
51.08914410853626

>  <rmsd>  (22) 
7.37072

>  <sdf_rank>  (22) 
0

$$$$

     RDKit          3D

 87 94  0  0  0  0  0  0  0  0999 V2000
   -1.7574   -8.3334   23.5682 C   0  0  1  0  0  0  0  0  0  0  0  0
   -1.2496   -8.2430   24.9617 C   0  0  0  0  0  0  0  0  0  0  0  0
    0.9367   -9.3534   19.6735 C   0  0  0  0  0  0  0  0  0  0  0  0
   -1.1294   -9.4448   22.7994 C   0  0  0  0  0  0  0  0  0  0  0  0
   -0.4462   -9.3792   21.6637 C   0  0  0  0  0  0  0  0  0  0  0  0
    0.0778   -8.4491   20.5534 C   0  0  0  0  0  0  0  0  0  0  0  0
    0.1487  -11.8233   19.0776 C   0  0  0  0  0  0  0  0  0  0  0  0
   -6.0613  -10.4594   23.0305 C   0  0  0  0  0  0  0  0  0  0  0  0
   -0.0608   -8.0375   25.2291 O   0  0  0  0  0  0  0  0  0  0  0  0
   -5.6395  -11.8713   22.6010 C   0  0  0  0  0  0  0  0  0  0  0  0
   -1.8620   -8.2358   27.2739 C   0  0  0  0  0  0  0  0  0  0  0  0
  -14.9437  -15.7006   25.8472 C   0  0  1  0  0  0  0  0  0  0  0  0
   -2.2918   -8.2014   29.4662 C   0  0  0  0  0  0  0  0  0  0  0  0
   -5.0759   -9.5324   23.2595 C   0  0  0  0  0  0  0  0  0  0  0  0
   -5.3798   -8.1961   23.6568 C   0  0  0  0  0  0  0  0  0  0  0  0
   -4.1588   -7.5644   23.8646 C   0  0  0  0  0  0  0  0  0  0  0  0
   -6.7558   -7.7806   23.7909 C   0  0  0  0  0  0  0  0  0  0  0  0
  -10.5082  -12.5693   22.3620 C   0  0  0  0  0  0  0  0  0  0  0  0
  -10.2262  -13.8321   21.9045 C   0  0  0  0  0  0  0  0  0  0  0  0
  -11.3203  -14.7328   21.6948 C   0  0  0  0  0  0  0  0  0  0  0  0
    0.6019  -10.7747   20.0946 C   0  0  2  0  0  0  0  0  0  0  0  0
   -0.0820  -10.6646   21.3207 N   0  0  0  0  0  0  0  0  0  0  0  0
   -0.5762  -11.4544   22.2781 C   0  0  0  0  0  0  0  0  0  0  0  0
   -1.2117  -10.7537   23.2077 N   0  0  0  0  0  0  0  0  0  0  0  0
    1.5207  -11.9617   19.7922 C   0  0  0  0  0  0  0  0  0  0  0  0
   -3.2278   -8.5140   23.6162 N   0  0  0  0  0  0  0  0  0  0  0  0
   -7.3677  -10.0308   23.1208 C   0  0  0  0  0  0  0  0  0  0  0  0
   -7.6989   -8.7426   23.4949 C   0  0  0  0  0  0  0  0  0  0  0  0
   -7.1504   -6.4013   24.0874 C   0  0  1  0  0  0  0  0  0  0  0  0
   -8.5380   -6.3063   24.1462 F   0  0  0  0  0  0  0  0  0  0  0  0
   -6.7891   -6.0427   25.3510 F   0  0  0  0  0  0  0  0  0  0  0  0
   -8.4773  -10.9475   22.8262 C   0  0  0  0  0  0  0  0  0  0  0  0
   -9.3670  -11.6887   22.6124 C   0  0  0  0  0  0  0  0  0  0  0  0
  -12.5648  -14.3087   22.0368 C   0  0  0  0  0  0  0  0  0  0  0  0
  -12.8492  -13.0421   22.5468 C   0  0  0  0  0  0  0  0  0  0  0  0
  -11.7729  -12.1559   22.7354 C   0  0  0  0  0  0  0  0  0  0  0  0
  -13.7274  -15.2857   21.7708 C   0  0  0  0  0  0  0  0  0  0  0  0
   -3.7365   -9.7077   23.2252 N   0  0  0  0  0  0  0  0  0  0  0  0
   -2.1679   -8.3699   25.9545 N   0  0  0  0  0  0  0  0  0  0  0  0
   -0.2956   -7.9926   27.9224 S   0  0  0  0  0  0  0  0  0  0  0  0
   -0.9580   -8.0143   29.5378 C   0  0  0  0  0  0  0  0  0  0  0  0
   -2.7873   -8.3359   28.1822 N   0  0  0  0  0  0  0  0  0  0  0  0
  -15.3390  -14.7012   23.5566 C   0  0  0  0  0  0  0  0  0  0  0  0
  -16.0025  -15.3086   24.8039 C   0  0  0  0  0  0  0  0  0  0  0  0
  -13.9010  -16.6718   25.2613 C   0  0  0  0  0  0  0  0  0  0  0  0
  -13.2421  -15.9751   24.0645 C   0  0  0  0  0  0  0  0  0  0  0  0
  -14.2947  -15.6342   23.0875 N   0  0  2  0  0  0  0  0  0  0  0  0
  -14.2440  -14.4292   26.3316 C   0  0  0  0  0  0  0  0  0  0  0  0
  -15.2452  -13.4814   26.6818 O   0  0  0  0  0  0  0  0  0  0  0  0
   -1.4936   -7.4029   23.0443 H   0  0  0  0  0  0  0  0  0  0  0  0
    0.6922   -9.2001   18.6120 H   0  0  0  0  0  0  0  0  0  0  0  0
    2.0085   -9.1364   19.7922 H   0  0  0  0  0  0  0  0  0  0  0  0
    0.6814   -7.6348   20.9807 H   0  0  0  0  0  0  0  0  0  0  0  0
   -0.7360   -7.9679   19.9912 H   0  0  0  0  0  0  0  0  0  0  0  0
   -0.6733  -12.5114   19.3244 H   0  0  0  0  0  0  0  0  0  0  0  0
   -0.1870  -11.8007   18.0303 H   0  0  0  0  0  0  0  0  0  0  0  0
   -5.4556  -12.4867   23.4940 H   0  0  0  0  0  0  0  0  0  0  0  0
   -6.4408  -12.3267   22.0005 H   0  0  0  0  0  0  0  0  0  0  0  0
   -4.7197  -11.8125   22.0005 H   0  0  0  0  0  0  0  0  0  0  0  0
  -15.4445  -16.2130   26.6819 H   0  0  0  0  0  0  0  0  0  0  0  0
   -2.9343   -8.2435   30.3580 H   0  0  0  0  0  0  0  0  0  0  0  0
   -3.9873   -6.5204   24.1655 H   0  0  0  0  0  0  0  0  0  0  0  0
   -9.1903  -14.1435   21.7046 H   0  0  0  0  0  0  0  0  0  0  0  0
  -11.1581  -15.7348   21.2708 H   0  0  0  0  0  0  0  0  0  0  0  0
   -0.4695  -12.5491   22.2934 H   0  0  0  0  0  0  0  0  0  0  0  0
    1.6727  -12.7476   20.5467 H   0  0  0  0  0  0  0  0  0  0  0  0
    2.5641  -12.0779   19.4639 H   0  0  0  0  0  0  0  0  0  0  0  0
   -8.7631   -8.4719   23.5596 H   0  0  0  0  0  0  0  0  0  0  0  0
   -6.6813   -5.7822   23.3086 H   0  0  0  0  0  0  0  0  0  0  0  0
  -13.8796  -12.7461   22.7930 H   0  0  0  0  0  0  0  0  0  0  0  0
  -11.9342  -11.1582   23.1696 H   0  0  0  0  0  0  0  0  0  0  0  0
  -14.4920  -14.8041   21.1436 H   0  0  0  0  0  0  0  0  0  0  0  0
  -13.3778  -16.1831   21.2393 H   0  0  0  0  0  0  0  0  0  0  0  0
   -3.1431   -8.5776   25.6962 H   0  0  0  0  0  0  0  0  0  0  0  0
   -0.3797   -7.8946   30.4658 H   0  0  0  0  0  0  0  0  0  0  0  0
  -16.0916  -14.5577   22.7673 H   0  0  0  0  0  0  0  0  0  0  0  0
  -14.8941  -13.7253   23.8006 H   0  0  0  0  0  0  0  0  0  0  0  0
  -16.5696  -16.2045   24.5110 H   0  0  0  0  0  0  0  0  0  0  0  0
  -16.6745  -14.5590   25.2470 H   0  0  0  0  0  0  0  0  0  0  0  0
  -13.1422  -16.9109   26.0209 H   0  0  0  0  0  0  0  0  0  0  0  0
  -14.3802  -17.6107   24.9469 H   0  0  0  0  0  0  0  0  0  0  0  0
  -12.7361  -15.0581   24.4007 H   0  0  0  0  0  0  0  0  0  0  0  0
  -12.4979  -16.6402   23.6022 H   0  0  0  0  0  0  0  0  0  0  0  0
  -14.8293  -16.5065   22.9682 H   0  0  0  0  0  0  0  0  0  0  0  0
  -13.6224  -14.6570   27.2101 H   0  0  0  0  0  0  0  0  0  0  0  0
  -13.5959  -14.0250   25.5400 H   0  0  0  0  0  0  0  0  0  0  0  0
  -15.3106  -13.4195   27.6677 H   0  0  0  0  0  0  0  0  0  0  0  0
  1  2  1  0
  1  4  1  0
  1 26  1  0
  2  9  2  0
  2 39  1  0
  3  6  1  0
 21  3  1  6
  4  5  2  0
  4 24  1  0
  5  6  1  0
  5 22  1  0
  7 21  1  0
  7 25  1  0
  8 10  1  0
  8 14  1  0
  8 27  2  0
 11 39  1  0
 11 40  1  0
 11 42  2  0
 12 44  1  0
 12 45  1  0
 12 48  1  0
 13 41  2  0
 13 42  1  0
 14 15  1  0
 14 38  2  0
 15 16  2  0
 15 17  1  0
 16 26  1  0
 17 28  2  0
 17 29  1  0
 18 19  2  0
 18 33  1  0
 18 36  1  0
 19 20  1  0
 20 34  2  0
 21 22  1  0
 21 25  1  0
 22 23  1  0
 23 24  2  0
 26 38  1  0
 27 28  1  0
 27 32  1  0
 29 30  1  0
 29 31  1  0
 32 33  3  0
 34 35  1  0
 34 37  1  0
 35 36  2  0
 47 37  1  0
 40 41  1  0
 43 44  1  0
 43 47  1  0
 45 46  1  0
 46 47  1  0
 48 49  1  0
  1 50  1  6
  3 51  1  0
  3 52  1  0
  6 53  1  0
  6 54  1  0
  7 55  1  0
  7 56  1  0
 10 57  1  0
 10 58  1  0
 10 59  1  0
 12 60  1  1
 13 61  1  0
 16 62  1  0
 19 63  1  0
 20 64  1  0
 23 65  1  0
 25 66  1  0
 25 67  1  0
 28 68  1  0
 29 69  1  6
 35 70  1  0
 36 71  1  0
 37 72  1  0
 37 73  1  0
 39 74  1  0
 41 75  1  0
 43 76  1  0
 43 77  1  0
 44 78  1  0
 44 79  1  0
 45 80  1  0
 45 81  1  0
 46 82  1  0
 46 83  1  0
 47 84  1  6
 48 85  1  0
 48 86  1  0
 49 87  1  0
M  CHG  1  47   1
M  END
>  <filename_input>  (23) 
8A2D_KXY_docked.sdf

>  <pdb_id>  (23) 
8A2D_KXY

>  <pose_rank>  (23) 
22

>  <num_atoms_heavy>  (23) 
49

>  <num_torsions>  (23) 
9

>  <pose>  (23) 
[-6.061286375584003, -10.459411346089482, 23.030541985916322, -0.14177876339560122, 2.7853831721673523, 1.4679677808711697, -2.2705758713796813, 2.609796894840521, 0.769014107414528, -2.626016921064785, -2.113512325930905, 3.7714947779312507, 2.7340025769540968, -2.0375827821238515, 2.523689644618358]

>  <energy>  (23) 
-408.82455511386917

>  <inter_energy>  (23) 
-469.64173024517373

>  <intra_energy>  (23) 
67.1417608318096

>  <rmsd>  (23) 
12.9884

>  <sdf_rank>  (23) 
0

$$$$

     RDKit          3D

 87 94  0  0  0  0  0  0  0  0999 V2000
    2.9146  -16.1817   17.6665 C   0  0  1  0  0  0  0  0  0  0  0  0
    2.3539  -16.3879   16.3060 C   0  0  0  0  0  0  0  0  0  0  0  0
    6.7491  -17.9620   15.3011 C   0  0  0  0  0  0  0  0  0  0  0  0
    4.4005  -16.2921   17.6977 C   0  0  0  0  0  0  0  0  0  0  0  0
    5.1975  -16.9384   16.8563 C   0  0  0  0  0  0  0  0  0  0  0  0
    5.2583  -17.8250   15.5983 C   0  0  0  0  0  0  0  0  0  0  0  0
    8.5039  -18.3215   17.2677 C   0  0  0  0  0  0  0  0  0  0  0  0
    3.0373  -11.4129   18.4251 C   0  0  0  0  0  0  0  0  0  0  0  0
    2.6397  -15.6629   15.3471 O   0  0  0  0  0  0  0  0  0  0  0  0
    4.2396  -11.0091   17.5606 C   0  0  0  0  0  0  0  0  0  0  0  0
    0.9871  -17.8009   14.9433 C   0  0  0  0  0  0  0  0  0  0  0  0
    7.6719   -1.3193   22.0586 C   0  0  1  0  0  0  0  0  0  0  0  0
   -0.2531  -19.0355   13.5543 C   0  0  0  0  0  0  0  0  0  0  0  0
    2.6992  -12.7416   18.4814 C   0  0  0  0  0  0  0  0  0  0  0  0
    1.5996  -13.2041   19.2641 C   0  0  0  0  0  0  0  0  0  0  0  0
    1.5062  -14.5721   19.0344 C   0  0  0  0  0  0  0  0  0  0  0  0
    0.8338  -12.2684   20.0529 C   0  0  0  0  0  0  0  0  0  0  0  0
    3.3484   -6.5652   19.2952 C   0  0  0  0  0  0  0  0  0  0  0  0
    2.4974   -5.6907   19.9235 C   0  0  0  0  0  0  0  0  0  0  0  0
    2.8688   -4.3081   19.9742 C   0  0  0  0  0  0  0  0  0  0  0  0
    7.4638  -17.4633   16.5461 C   0  0  2  0  0  0  0  0  0  0  0  0
    6.4930  -16.7782   17.3019 N   0  0  0  0  0  0  0  0  0  0  0  0
    6.4113  -16.0368   18.4102 C   0  0  0  0  0  0  0  0  0  0  0  0
    5.1563  -15.7059   18.6834 N   0  0  0  0  0  0  0  0  0  0  0  0
    8.9296  -17.0209   16.5332 C   0  0  0  0  0  0  0  0  0  0  0  0
    2.4924  -14.8456   18.1498 N   0  0  0  0  0  0  0  0  0  0  0  0
    2.3222  -10.5431   19.2192 C   0  0  0  0  0  0  0  0  0  0  0  0
    1.2567  -10.9568   19.9957 C   0  0  0  0  0  0  0  0  0  0  0  0
   -0.2372  -12.6781   20.9644 C   0  0  1  0  0  0  0  0  0  0  0  0
   -0.7019  -11.5762   21.6772 F   0  0  0  0  0  0  0  0  0  0  0  0
   -1.3511  -13.0621   20.2805 F   0  0  0  0  0  0  0  0  0  0  0  0
    2.6669   -9.1156   19.2632 C   0  0  0  0  0  0  0  0  0  0  0  0
    2.9655   -7.9773   19.3019 C   0  0  0  0  0  0  0  0  0  0  0  0
    4.0792   -3.9581   19.4664 C   0  0  0  0  0  0  0  0  0  0  0  0
    4.9676   -4.8522   18.8693 C   0  0  0  0  0  0  0  0  0  0  0  0
    4.5906   -6.2062   18.8078 C   0  0  0  0  0  0  0  0  0  0  0  0
    4.4397   -2.4595   19.5047 C   0  0  0  0  0  0  0  0  0  0  0  0
    3.2506  -13.7755   17.8083 N   0  0  0  0  0  0  0  0  0  0  0  0
    1.5170  -17.4457   16.1456 N   0  0  0  0  0  0  0  0  0  0  0  0
    1.1826  -16.9515   13.4689 S   0  0  0  0  0  0  0  0  0  0  0  0
    0.1544  -18.1094   12.6623 C   0  0  0  0  0  0  0  0  0  0  0  0
    0.2157  -18.8427   14.8408 N   0  0  0  0  0  0  0  0  0  0  0  0
    5.2547   -2.0215   21.8007 C   0  0  0  0  0  0  0  0  0  0  0  0
    6.5264   -2.1526   22.6556 C   0  0  0  0  0  0  0  0  0  0  0  0
    7.9590   -1.7131   20.5969 C   0  0  0  0  0  0  0  0  0  0  0  0
    6.6673   -1.4985   19.7986 C   0  0  0  0  0  0  0  0  0  0  0  0
    5.6056   -2.3293   20.3996 N   0  0  2  0  0  0  0  0  0  0  0  0
    7.2833    0.1590   22.1238 C   0  0  0  0  0  0  0  0  0  0  0  0
    7.0962    0.5055   23.4906 O   0  0  0  0  0  0  0  0  0  0  0  0
    2.5285  -16.9760   18.3223 H   0  0  0  0  0  0  0  0  0  0  0  0
    7.0064  -19.0136   15.1064 H   0  0  0  0  0  0  0  0  0  0  0  0
    7.0397  -17.3883   14.4087 H   0  0  0  0  0  0  0  0  0  0  0  0
    4.7365  -17.3440   14.7577 H   0  0  0  0  0  0  0  0  0  0  0  0
    4.7697  -18.7990   15.7482 H   0  0  0  0  0  0  0  0  0  0  0  0
    8.5174  -18.3634   18.3668 H   0  0  0  0  0  0  0  0  0  0  0  0
    8.8096  -19.3773   17.2254 H   0  0  0  0  0  0  0  0  0  0  0  0
    5.0805  -10.7267   18.2111 H   0  0  0  0  0  0  0  0  0  0  0  0
    4.5359  -11.8570   16.9256 H   0  0  0  0  0  0  0  0  0  0  0  0
    3.9640  -10.1542   16.9256 H   0  0  0  0  0  0  0  0  0  0  0  0
    8.5858   -1.5089   22.6406 H   0  0  0  0  0  0  0  0  0  0  0  0
   -0.9063  -19.8770   13.2801 H   0  0  0  0  0  0  0  0  0  0  0  0
    0.7872  -15.2780   19.4757 H   0  0  0  0  0  0  0  0  0  0  0  0
    1.5576   -6.0414   20.3751 H   0  0  0  0  0  0  0  0  0  0  0  0
    2.1960   -3.5547   20.4099 H   0  0  0  0  0  0  0  0  0  0  0  0
    7.2767  -15.7381   19.0200 H   0  0  0  0  0  0  0  0  0  0  0  0
    9.2447  -16.1393   17.1107 H   0  0  0  0  0  0  0  0  0  0  0  0
    9.6625  -16.7689   15.7526 H   0  0  0  0  0  0  0  0  0  0  0  0
    0.7215  -10.2060   20.5955 H   0  0  0  0  0  0  0  0  0  0  0  0
    0.1893  -13.4792   21.5859 H   0  0  0  0  0  0  0  0  0  0  0  0
    5.9300   -4.5104   18.4606 H   0  0  0  0  0  0  0  0  0  0  0  0
    5.2683   -6.9608   18.3819 H   0  0  0  0  0  0  0  0  0  0  0  0
    4.6945   -2.1044   18.4953 H   0  0  0  0  0  0  0  0  0  0  0  0
    3.5932   -1.8569   19.8658 H   0  0  0  0  0  0  0  0  0  0  0  0
    1.2714  -18.0062   16.9740 H   0  0  0  0  0  0  0  0  0  0  0  0
   -0.1177  -18.0872   11.5967 H   0  0  0  0  0  0  0  0  0  0  0  0
    4.4919   -2.7292   22.1574 H   0  0  0  0  0  0  0  0  0  0  0  0
    4.8508   -1.0011   21.8755 H   0  0  0  0  0  0  0  0  0  0  0  0
    6.8296   -3.2094   22.6917 H   0  0  0  0  0  0  0  0  0  0  0  0
    6.3108   -1.7822   23.6687 H   0  0  0  0  0  0  0  0  0  0  0  0
    8.7619   -1.0816   20.1888 H   0  0  0  0  0  0  0  0  0  0  0  0
    8.2823   -2.7626   20.5352 H   0  0  0  0  0  0  0  0  0  0  0  0
    6.3772   -0.4382   19.8391 H   0  0  0  0  0  0  0  0  0  0  0  0
    6.8207   -1.7830   18.7472 H   0  0  0  0  0  0  0  0  0  0  0  0
    6.0280   -3.2645   20.4885 H   0  0  0  0  0  0  0  0  0  0  0  0
    8.0843    0.7749   21.6890 H   0  0  0  0  0  0  0  0  0  0  0  0
    6.3584    0.3360   21.5552 H   0  0  0  0  0  0  0  0  0  0  0  0
    7.4789   -0.2034   24.0661 H   0  0  0  0  0  0  0  0  0  0  0  0
  1  2  1  0
  1  4  1  0
  1 26  1  0
  2  9  2  0
  2 39  1  0
  3  6  1  0
 21  3  1  6
  4  5  2  0
  4 24  1  0
  5  6  1  0
  5 22  1  0
  7 21  1  0
  7 25  1  0
  8 10  1  0
  8 14  1  0
  8 27  2  0
 11 39  1  0
 11 40  1  0
 11 42  2  0
 12 44  1  0
 12 45  1  0
 12 48  1  0
 13 41  2  0
 13 42  1  0
 14 15  1  0
 14 38  2  0
 15 16  2  0
 15 17  1  0
 16 26  1  0
 17 28  2  0
 17 29  1  0
 18 19  2  0
 18 33  1  0
 18 36  1  0
 19 20  1  0
 20 34  2  0
 21 22  1  0
 21 25  1  0
 22 23  1  0
 23 24  2  0
 26 38  1  0
 27 28  1  0
 27 32  1  0
 29 30  1  0
 29 31  1  0
 32 33  3  0
 34 35  1  0
 34 37  1  0
 35 36  2  0
 47 37  1  0
 40 41  1  0
 43 44  1  0
 43 47  1  0
 45 46  1  0
 46 47  1  0
 48 49  1  0
  1 50  1  1
  3 51  1  0
  3 52  1  0
  6 53  1  0
  6 54  1  0
  7 55  1  0
  7 56  1  0
 10 57  1  0
 10 58  1  0
 10 59  1  0
 12 60  1  1
 13 61  1  0
 16 62  1  0
 19 63  1  0
 20 64  1  0
 23 65  1  0
 25 66  1  0
 25 67  1  0
 28 68  1  0
 29 69  1  1
 35 70  1  0
 36 71  1  0
 37 72  1  0
 37 73  1  0
 39 74  1  0
 41 75  1  0
 43 76  1  0
 43 77  1  0
 44 78  1  0
 44 79  1  0
 45 80  1  0
 45 81  1  0
 46 82  1  0
 46 83  1  0
 47 84  1  1
 48 85  1  0
 48 86  1  0
 49 87  1  0
M  CHG  1  47   1
M  END
>  <filename_input>  (24) 
8A2D_KXY_docked.sdf

>  <pdb_id>  (24) 
8A2D_KXY

>  <pose_rank>  (24) 
23

>  <num_atoms_heavy>  (24) 
49

>  <num_torsions>  (24) 
9

>  <pose>  (24) 
[3.0372585003686394, -11.412921798509169, 18.425105815216316, -0.7177352819503825, 0.8792446914189433, -4.272719680900187, -2.362377816144661, 0.18752996896275645, -0.03041694384523034, -2.629985464069157, 1.0089837922860203, 3.9724046568104208, -3.107742260599909, -0.32359527933567794, 0.4032507951597377]

>  <energy>  (24) 
-400.0069540878645

>  <inter_energy>  (24) 
-430.1532339086672

>  <intra_energy>  (24) 
32.775157969393184

>  <rmsd>  (24) 
13.4259

>  <sdf_rank>  (24) 
0

$$$$

     RDKit          3D

 87 94  0  0  0  0  0  0  0  0999 V2000
    0.5319  -11.5526   17.6398 C   0  0  1  0  0  0  0  0  0  0  0  0
    1.5138  -12.4927   18.2399 C   0  0  0  0  0  0  0  0  0  0  0  0
   -1.4310  -11.6456   22.0677 C   0  0  0  0  0  0  0  0  0  0  0  0
   -0.7599  -11.5206   18.3822 C   0  0  0  0  0  0  0  0  0  0  0  0
   -0.9623  -11.6200   19.6899 C   0  0  0  0  0  0  0  0  0  0  0  0
   -0.2924  -11.8076   21.0641 C   0  0  0  0  0  0  0  0  0  0  0  0
   -3.8238  -12.7087   21.5982 C   0  0  0  0  0  0  0  0  0  0  0  0
    2.1214   -7.2855   19.2515 C   0  0  0  0  0  0  0  0  0  0  0  0
    2.3727  -12.1349   19.0529 O   0  0  0  0  0  0  0  0  0  0  0  0
    1.9679   -7.4688   20.7676 C   0  0  0  0  0  0  0  0  0  0  0  0
    2.1924  -14.7810   18.3968 C   0  0  0  0  0  0  0  0  0  0  0  0
    8.6141   -0.5681   24.2552 C   0  0  1  0  0  0  0  0  0  0  0  0
    2.9278  -16.8763   18.6434 C   0  0  0  0  0  0  0  0  0  0  0  0
    1.7343   -8.3170   18.4335 C   0  0  0  0  0  0  0  0  0  0  0  0
    1.8380   -8.2285   17.0133 C   0  0  0  0  0  0  0  0  0  0  0  0
    1.4291   -9.4606   16.5154 C   0  0  0  0  0  0  0  0  0  0  0  0
    2.3268   -7.0156   16.4016 C   0  0  0  0  0  0  0  0  0  0  0  0
    3.4994   -2.8213   20.9000 C   0  0  0  0  0  0  0  0  0  0  0  0
    3.8130   -3.0443   22.2174 C   0  0  0  0  0  0  0  0  0  0  0  0
    4.1611   -1.9153   23.0277 C   0  0  0  0  0  0  0  0  0  0  0  0
   -2.7112  -11.7181   21.2519 C   0  0  2  0  0  0  0  0  0  0  0  0
   -2.3232  -11.5616   19.9073 N   0  0  0  0  0  0  0  0  0  0  0  0
   -2.8828  -11.4339   18.7010 C   0  0  0  0  0  0  0  0  0  0  0  0
   -1.9680  -11.3914   17.7417 N   0  0  0  0  0  0  0  0  0  0  0  0
   -4.0489  -11.1814   21.7686 C   0  0  0  0  0  0  0  0  0  0  0  0
    1.1364  -10.1996   17.6101 N   0  0  0  0  0  0  0  0  0  0  0  0
    2.5431   -6.1214   18.6467 C   0  0  0  0  0  0  0  0  0  0  0  0
    2.6484   -5.9973   17.2746 C   0  0  0  0  0  0  0  0  0  0  0  0
    2.3602   -6.8071   14.9520 C   0  0  1  0  0  0  0  0  0  0  0  0
    1.1287   -7.1412   14.3955 F   0  0  0  0  0  0  0  0  0  0  0  0
    2.4601   -5.4841   14.6432 F   0  0  0  0  0  0  0  0  0  0  0  0
    2.9118   -4.9506   19.4540 C   0  0  0  0  0  0  0  0  0  0  0  0
    3.1953   -3.9986   20.0863 C   0  0  0  0  0  0  0  0  0  0  0  0
    4.2367   -0.7009   22.4234 C   0  0  0  0  0  0  0  0  0  0  0  0
    3.9646   -0.4780   21.0738 C   0  0  0  0  0  0  0  0  0  0  0  0
    3.6075   -1.5878   20.2864 C   0  0  0  0  0  0  0  0  0  0  0  0
    4.5817    0.5013   23.3250 C   0  0  0  0  0  0  0  0  0  0  0  0
    1.2834   -9.5412   18.7855 N   0  0  0  0  0  0  0  0  0  0  0  0
    1.4113  -13.7967   17.8738 N   0  0  0  0  0  0  0  0  0  0  0  0
    3.4814  -14.5597   19.5027 S   0  0  0  0  0  0  0  0  0  0  0  0
    3.8043  -16.2753   19.4740 C   0  0  0  0  0  0  0  0  0  0  0  0
    2.0304  -16.0190   18.0334 N   0  0  0  0  0  0  0  0  0  0  0  0
    6.8416   -0.0981   22.5117 C   0  0  0  0  0  0  0  0  0  0  0  0
    8.3233    0.0706   22.8874 C   0  0  0  0  0  0  0  0  0  0  0  0
    7.7066    0.0113   25.3572 C   0  0  0  0  0  0  0  0  0  0  0  0
    6.2532   -0.2482   24.9425 C   0  0  0  0  0  0  0  0  0  0  0  0
    6.0204    0.3963   23.6352 N   0  0  2  0  0  0  0  0  0  0  0  0
    8.3870   -2.0771   24.1456 C   0  0  0  0  0  0  0  0  0  0  0  0
    8.9074   -2.6874   25.3203 O   0  0  0  0  0  0  0  0  0  0  0  0
    0.2991  -11.9005   16.6225 H   0  0  0  0  0  0  0  0  0  0  0  0
   -1.4041  -12.4549   22.8122 H   0  0  0  0  0  0  0  0  0  0  0  0
   -1.3541  -10.6970   22.6194 H   0  0  0  0  0  0  0  0  0  0  0  0
    0.4817  -11.0433   21.2272 H   0  0  0  0  0  0  0  0  0  0  0  0
    0.2110  -12.7813   21.1553 H   0  0  0  0  0  0  0  0  0  0  0  0
   -4.3429  -13.2564   20.7979 H   0  0  0  0  0  0  0  0  0  0  0  0
   -3.9097  -13.5880   22.2534 H   0  0  0  0  0  0  0  0  0  0  0  0
    2.5891   -6.7273   21.2914 H   0  0  0  0  0  0  0  0  0  0  0  0
    0.9138   -7.3285   21.0491 H   0  0  0  0  0  0  0  0  0  0  0  0
    2.2907   -8.4820   21.0491 H   0  0  0  0  0  0  0  0  0  0  0  0
    9.6560   -0.3490   24.5318 H   0  0  0  0  0  0  0  0  0  0  0  0
    2.9268  -17.9618   18.4654 H   0  0  0  0  0  0  0  0  0  0  0  0
    1.3589   -9.7675   15.4614 H   0  0  0  0  0  0  0  0  0  0  0  0
    3.7976   -4.0603   22.6388 H   0  0  0  0  0  0  0  0  0  0  0  0
    4.3605   -2.0281   24.1036 H   0  0  0  0  0  0  0  0  0  0  0  0
   -3.9669  -11.3718   18.5253 H   0  0  0  0  0  0  0  0  0  0  0  0
   -4.7273  -10.6447   21.0891 H   0  0  0  0  0  0  0  0  0  0  0  0
   -4.3605  -10.5252   22.5946 H   0  0  0  0  0  0  0  0  0  0  0  0
    3.0050   -5.0431   16.8596 H   0  0  0  0  0  0  0  0  0  0  0  0
    3.2069   -7.4049   14.5834 H   0  0  0  0  0  0  0  0  0  0  0  0
    4.0271    0.5309   20.6400 H   0  0  0  0  0  0  0  0  0  0  0  0
    3.4189   -1.4764   19.2085 H   0  0  0  0  0  0  0  0  0  0  0  0
    4.3752    1.4437   22.7964 H   0  0  0  0  0  0  0  0  0  0  0  0
    3.9763    0.4952   24.2434 H   0  0  0  0  0  0  0  0  0  0  0  0
    0.7083  -14.0532   17.1661 H   0  0  0  0  0  0  0  0  0  0  0  0
    4.5962  -16.7848   20.0425 H   0  0  0  0  0  0  0  0  0  0  0  0
    6.6193    0.4827   21.6044 H   0  0  0  0  0  0  0  0  0  0  0  0
    6.6181   -1.1571   22.3155 H   0  0  0  0  0  0  0  0  0  0  0  0
    8.5647    1.1429   22.9311 H   0  0  0  0  0  0  0  0  0  0  0  0
    8.9400   -0.4291   22.1259 H   0  0  0  0  0  0  0  0  0  0  0  0
    7.9176   -0.4843   26.3163 H   0  0  0  0  0  0  0  0  0  0  0  0
    7.8874    1.0893   25.4805 H   0  0  0  0  0  0  0  0  0  0  0  0
    6.0781   -1.3310   24.8595 H   0  0  0  0  0  0  0  0  0  0  0  0
    5.5655    0.1643   25.6954 H   0  0  0  0  0  0  0  0  0  0  0  0
    6.3781    1.3551   23.7520 H   0  0  0  0  0  0  0  0  0  0  0  0
    7.3105   -2.2872   24.0614 H   0  0  0  0  0  0  0  0  0  0  0  0
    8.8918   -2.4752   23.2530 H   0  0  0  0  0  0  0  0  0  0  0  0
    8.5280   -2.2424   26.1191 H   0  0  0  0  0  0  0  0  0  0  0  0
  1  2  1  0
  1  4  1  0
  1 26  1  0
  2  9  2  0
  2 39  1  0
  3  6  1  0
 21  3  1  1
  4  5  2  0
  4 24  1  0
  5  6  1  0
  5 22  1  0
  7 21  1  0
  7 25  1  0
  8 10  1  0
  8 14  1  0
  8 27  2  0
 11 39  1  0
 11 40  1  0
 11 42  2  0
 12 44  1  0
 12 45  1  0
 12 48  1  0
 13 41  2  0
 13 42  1  0
 14 15  1  0
 14 38  2  0
 15 16  2  0
 15 17  1  0
 16 26  1  0
 17 28  2  0
 17 29  1  0
 18 19  2  0
 18 33  1  0
 18 36  1  0
 19 20  1  0
 20 34  2  0
 21 22  1  0
 21 25  1  0
 22 23  1  0
 23 24  2  0
 26 38  1  0
 27 28  1  0
 27 32  1  0
 29 30  1  0
 29 31  1  0
 32 33  3  0
 34 35  1  0
 34 37  1  0
 35 36  2  0
 47 37  1  0
 40 41  1  0
 43 44  1  0
 43 47  1  0
 45 46  1  0
 46 47  1  0
 48 49  1  0
  1 50  1  6
  3 51  1  0
  3 52  1  0
  6 53  1  0
  6 54  1  0
  7 55  1  0
  7 56  1  0
 10 57  1  0
 10 58  1  0
 10 59  1  0
 12 60  1  1
 13 61  1  0
 16 62  1  0
 19 63  1  0
 20 64  1  0
 23 65  1  0
 25 66  1  0
 25 67  1  0
 28 68  1  0
 29 69  1  6
 35 70  1  0
 36 71  1  0
 37 72  1  0
 37 73  1  0
 39 74  1  0
 41 75  1  0
 43 76  1  0
 43 77  1  0
 44 78  1  0
 44 79  1  0
 45 80  1  0
 45 81  1  0
 46 82  1  0
 46 83  1  0
 47 84  1  1
 48 85  1  0
 48 86  1  0
 49 87  1  0
M  CHG  1  47   1
M  END
>  <filename_input>  (25) 
8A2D_KXY_docked.sdf

>  <pdb_id>  (25) 
8A2D_KXY

>  <pose_rank>  (25) 
24

>  <num_atoms_heavy>  (25) 
49

>  <num_torsions>  (25) 
9

>  <pose>  (25) 
[2.1214302911602916, -7.285505427326045, 19.25145269431592, -1.9716779048487172, -1.355584727303426, 0.656655233072769, 1.730697634098774, -1.3264367558288284, -1.1175803734724965, 2.9305633098458204, -2.9914101450198394, -0.4315655730086632, -2.8580011464422377, 0.7240529869353107, -0.1854640649314865]

>  <energy>  (25) 
-375.374914796841

>  <inter_energy>  (25) 
-423.7824145422311

>  <intra_energy>  (25) 
56.04036005743656

>  <rmsd>  (25) 
11.4599

>  <sdf_rank>  (25) 
0

$$$$

     RDKit          3D

 87 94  0  0  0  0  0  0  0  0999 V2000
   -7.0540   -9.6380   22.1260 C   0  0  1  0  0  0  0  0  0  0  0  0
   -7.4170  -10.4250   23.3330 C   0  0  0  0  0  0  0  0  0  0  0  0
   -9.8190   -6.5910   24.6830 C   0  0  0  0  0  0  0  0  0  0  0  0
   -7.6110   -8.2560   22.1530 C   0  0  0  0  0  0  0  0  0  0  0  0
   -8.4350   -7.7160   23.0420 C   0  0  0  0  0  0  0  0  0  0  0  0
   -9.2480   -7.9610   24.3270 C   0  0  0  0  0  0  0  0  0  0  0  0
  -10.7710   -4.9780   22.7940 C   0  0  0  0  0  0  0  0  0  0  0  0
   -2.5710  -10.9540   20.9000 C   0  0  0  0  0  0  0  0  0  0  0  0
   -6.7840  -10.3570   24.3920 O   0  0  0  0  0  0  0  0  0  0  0  0
   -2.8580  -12.1330   19.9600 C   0  0  0  0  0  0  0  0  0  0  0  0
   -9.0080  -11.9400   24.2790 C   0  0  0  0  0  0  0  0  0  0  0  0
    6.0990  -13.7730   14.1720 C   0  0  1  0  0  0  0  0  0  0  0  0
  -10.4200  -13.3450   25.2910 C   0  0  0  0  0  0  0  0  0  0  0  0
   -3.6380  -10.3180   21.4830 C   0  0  0  0  0  0  0  0  0  0  0  0
   -3.4610   -9.2170   22.3730 C   0  0  0  0  0  0  0  0  0  0  0  0
   -4.7370   -8.7820   22.7130 C   0  0  0  0  0  0  0  0  0  0  0  0
   -2.1300   -8.7700   22.7090 C   0  0  0  0  0  0  0  0  0  0  0  0
    1.9790  -12.4890   19.7590 C   0  0  0  0  0  0  0  0  0  0  0  0
    3.1900  -11.8450   19.8070 C   0  0  0  0  0  0  0  0  0  0  0  0
    4.3410  -12.5360   19.3070 C   0  0  0  0  0  0  0  0  0  0  0  0
   -9.6100   -5.7260   23.4510 C   0  0  2  0  0  0  0  0  0  0  0  0
   -8.6930   -6.4220   22.6400 N   0  0  0  0  0  0  0  0  0  0  0  0
   -8.0060   -6.2450   21.5080 C   0  0  0  0  0  0  0  0  0  0  0  0
   -7.3210   -7.3320   21.1790 N   0  0  0  0  0  0  0  0  0  0  0  0
   -9.6330   -4.1960   23.5050 C   0  0  0  0  0  0  0  0  0  0  0  0
   -5.5760   -9.5900   22.0250 N   0  0  0  0  0  0  0  0  0  0  0  0
   -1.3090  -10.5410   21.2680 C   0  0  0  0  0  0  0  0  0  0  0  0
   -1.1000   -9.4840   22.1330 C   0  0  0  0  0  0  0  0  0  0  0  0
   -1.8630   -7.7210   23.6960 C   0  0  1  0  0  0  0  0  0  0  0  0
   -2.6470   -6.6030   23.4250 F   0  0  0  0  0  0  0  0  0  0  0  0
   -2.3030   -8.0810   24.9340 F   0  0  0  0  0  0  0  0  0  0  0  0
   -0.1170  -11.2160   20.7370 C   0  0  0  0  0  0  0  0  0  0  0  0
    0.8310  -11.7770   20.3210 C   0  0  0  0  0  0  0  0  0  0  0  0
    4.1780  -13.8180   18.8880 C   0  0  0  0  0  0  0  0  0  0  0  0
    2.9570  -14.4920   18.8820 C   0  0  0  0  0  0  0  0  0  0  0  0
    1.8270  -13.8030   19.3590 C   0  0  0  0  0  0  0  0  0  0  0  0
    5.4260  -14.5270   18.3250 C   0  0  0  0  0  0  0  0  0  0  0  0
   -4.9560  -10.5450   21.2900 N   0  0  0  0  0  0  0  0  0  0  0  0
   -8.5140  -11.2200   23.2350 N   0  0  0  0  0  0  0  0  0  0  0  0
   -8.3070  -12.0610   25.8370 S   0  0  0  0  0  0  0  0  0  0  0  0
   -9.5760  -13.1560   26.3260 C   0  0  0  0  0  0  0  0  0  0  0  0
  -10.0810  -12.6610   24.1380 N   0  0  0  0  0  0  0  0  0  0  0  0
    6.0550  -15.4110   16.1000 C   0  0  0  0  0  0  0  0  0  0  0  0
    5.7450  -15.2040   14.6080 C   0  0  0  0  0  0  0  0  0  0  0  0
    5.3680  -12.7210   15.0280 C   0  0  0  0  0  0  0  0  0  0  0  0
    5.7730  -12.9520   16.4890 C   0  0  0  0  0  0  0  0  0  0  0  0
    5.3990  -14.3300   16.8630 N   0  0  2  0  0  0  0  0  0  0  0  0
    7.6110  -13.5830   14.3080 C   0  0  0  0  0  0  0  0  0  0  0  0
    7.8910  -12.1920   14.2080 O   0  0  0  0  0  0  0  0  0  0  0  0
   -7.4912  -10.1340   21.2469 H   0  0  0  0  0  0  0  0  0  0  0  0
  -10.8906   -6.6713   24.9180 H   0  0  0  0  0  0  0  0  0  0  0  0
   -9.3258   -6.1630   25.5682 H   0  0  0  0  0  0  0  0  0  0  0  0
   -8.5988   -8.3334   25.1331 H   0  0  0  0  0  0  0  0  0  0  0  0
  -10.0331   -8.7188   24.1879 H   0  0  0  0  0  0  0  0  0  0  0  0
  -10.8582   -4.9492   21.6979 H   0  0  0  0  0  0  0  0  0  0  0  0
  -11.8673   -5.0096   22.8787 H   0  0  0  0  0  0  0  0  0  0  0  0
   -3.0768  -13.0317   20.5553 H   0  0  0  0  0  0  0  0  0  0  0  0
   -3.7241  -11.8937   19.3255 H   0  0  0  0  0  0  0  0  0  0  0  0
   -1.9788  -12.3185   19.3255 H   0  0  0  0  0  0  0  0  0  0  0  0
    5.7802  -13.6337   13.1285 H   0  0  0  0  0  0  0  0  0  0  0  0
  -11.3072  -13.9917   25.3587 H   0  0  0  0  0  0  0  0  0  0  0  0
   -5.0057   -7.9602   23.3930 H   0  0  0  0  0  0  0  0  0  0  0  0
    3.2744  -10.8279   20.2174 H   0  0  0  0  0  0  0  0  0  0  0  0
    5.3243  -12.0448   19.2638 H   0  0  0  0  0  0  0  0  0  0  0  0
   -8.0082   -5.3141   20.9220 H   0  0  0  0  0  0  0  0  0  0  0  0
   -8.9120   -3.6124   22.9138 H   0  0  0  0  0  0  0  0  0  0  0  0
   -9.5847   -3.4419   24.3044 H   0  0  0  0  0  0  0  0  0  0  0  0
   -0.0651   -9.1990   22.3732 H   0  0  0  0  0  0  0  0  0  0  0  0
   -0.7786   -7.5411   23.6551 H   0  0  0  0  0  0  0  0  0  0  0  0
    2.8802  -15.5268   18.5168 H   0  0  0  0  0  0  0  0  0  0  0  0
    0.8462  -14.2982   19.4123 H   0  0  0  0  0  0  0  0  0  0  0  0
    6.3385  -14.0843   18.7508 H   0  0  0  0  0  0  0  0  0  0  0  0
    5.4240  -15.5967   18.5813 H   0  0  0  0  0  0  0  0  0  0  0  0
   -8.9954  -11.2809   22.3265 H   0  0  0  0  0  0  0  0  0  0  0  0
   -9.6719  -13.6180   27.3197 H   0  0  0  0  0  0  0  0  0  0  0  0
    5.6676  -16.3866   16.4287 H   0  0  0  0  0  0  0  0  0  0  0  0
    7.1418  -15.3888   16.2684 H   0  0  0  0  0  0  0  0  0  0  0  0
    4.6731  -15.3794   14.4343 H   0  0  0  0  0  0  0  0  0  0  0  0
    6.3481  -15.9117   14.0203 H   0  0  0  0  0  0  0  0  0  0  0  0
    5.6627  -11.7094   14.7122 H   0  0  0  0  0  0  0  0  0  0  0  0
    4.2784  -12.8143   14.9090 H   0  0  0  0  0  0  0  0  0  0  0  0
    6.8594  -12.8189   16.5990 H   0  0  0  0  0  0  0  0  0  0  0  0
    5.2605  -12.2304   17.1422 H   0  0  0  0  0  0  0  0  0  0  0  0
    4.4188  -14.4232   16.5606 H   0  0  0  0  0  0  0  0  0  0  0  0
    7.9484  -13.9623   15.2838 H   0  0  0  0  0  0  0  0  0  0  0  0
    8.1379  -14.1362   13.5166 H   0  0  0  0  0  0  0  0  0  0  0  0
    7.9689  -11.8049   15.1159 H   0  0  0  0  0  0  0  0  0  0  0  0
  1  2  1  0
  1  4  1  0
  1 26  1  0
  2  9  2  0
  2 39  1  0
  3  6  1  0
 21  3  1  1
  4  5  2  0
  4 24  1  0
  5  6  1  0
  5 22  1  0
  7 21  1  0
  7 25  1  0
  8 10  1  0
  8 14  1  0
  8 27  2  0
 11 39  1  0
 11 40  1  0
 11 42  2  0
 12 44  1  0
 12 45  1  0
 12 48  1  0
 13 41  2  0
 13 42  1  0
 14 15  1  0
 14 38  2  0
 15 16  2  0
 15 17  1  0
 16 26  1  0
 17 28  2  0
 17 29  1  0
 18 19  2  0
 18 33  1  0
 18 36  1  0
 19 20  1  0
 20 34  2  0
 21 22  1  0
 21 25  1  0
 22 23  1  0
 23 24  2  0
 26 38  1  0
 27 28  1  0
 27 32  1  0
 29 30  1  0
 29 31  1  0
 32 33  3  0
 34 35  1  0
 34 37  1  0
 35 36  2  0
 47 37  1  0
 40 41  1  0
 43 44  1  0
 43 47  1  0
 45 46  1  0
 46 47  1  0
 48 49  1  0
  1 50  1  6
  3 51  1  0
  3 52  1  0
  6 53  1  0
  6 54  1  0
  7 55  1  0
  7 56  1  0
 10 57  1  0
 10 58  1  0
 10 59  1  0
 12 60  1  6
 13 61  1  0
 16 62  1  0
 19 63  1  0
 20 64  1  0
 23 65  1  0
 25 66  1  0
 25 67  1  0
 28 68  1  0
 29 69  1  1
 35 70  1  0
 36 71  1  0
 37 72  1  0
 37 73  1  0
 39 74  1  0
 41 75  1  0
 43 76  1  0
 43 77  1  0
 44 78  1  0
 44 79  1  0
 45 80  1  0
 45 81  1  0
 46 82  1  0
 46 83  1  0
 47 84  1  6
 48 85  1  0
 48 86  1  0
 49 87  1  0
M  CHG  1  47   1
M  END
>  <filename_input>  (26) 
8A2D_KXY_docked.sdf

>  <pdb_id>  (26) 
8A2D_KXY

>  <pose_rank>  (26) 
25

>  <num_atoms_heavy>  (26) 
49

>  <num_torsions>  (26) 
9

>  <pose>  (26) 
[-2.571, -10.954, 20.9, 1e-06, 1e-06, 1e-06, 0.0, 0.0, 0.0, 0.0, 0.0, 0.0, 0.0, 0.0, 0.0]

>  <energy>  (26) 
-946.5096188332677

>  <inter_energy>  (26) 
-990.0938723786063

>  <intra_energy>  (26) 
44.881024435033176

>  <rmsd>  (26) 
0.0

>  <sdf_rank>  (26) 
0

$$$$
