
     RDKit          3D

 41 43  0  0  0  0  0  0  0  0999 V2000
  -19.4562   40.7169  -12.6516 F   0  0  0  0  0  0  0  0  0  0  0  0
  -13.3146   40.7837  -14.3373 C   0  0  0  0  0  0  0  0  0  0  0  0
  -12.1507   40.5176  -15.0399 C   0  0  0  0  0  0  0  0  0  0  0  0
  -11.9121   41.1791  -16.2311 C   0  0  0  0  0  0  0  0  0  0  0  0
  -12.8254   42.1005  -16.7142 C   0  0  0  0  0  0  0  0  0  0  0  0
  -17.5396   41.7174  -13.6063 C   0  0  0  0  0  0  0  0  0  0  0  0
  -18.9901   41.1910  -13.7932 C   0  0  2  0  0  0  0  0  0  0  0  0
  -17.0679   42.7604  -12.7828 C   0  0  0  0  0  0  0  0  0  0  0  0
  -14.9330   44.6865  -11.5008 C   0  0  0  0  0  0  0  0  0  0  0  0
  -12.9178   45.3509  -12.0439 C   0  0  0  0  0  0  0  0  0  0  0  0
  -10.7217   45.9977  -12.8481 C   0  0  0  0  0  0  0  0  0  0  0  0
   -9.5457   46.9027  -12.5566 C   0  0  2  0  0  0  0  0  0  0  0  0
  -15.4542   41.9552  -14.0556 N   0  0  0  0  0  0  0  0  0  0  0  0
  -13.9801   42.3544  -15.9958 C   0  0  0  0  0  0  0  0  0  0  0  0
  -10.7097   45.1979  -13.7814 O   0  0  0  0  0  0  0  0  0  0  0  0
  -14.2488   41.6945  -14.8019 C   0  0  0  0  0  0  0  0  0  0  0  0
  -14.7573   43.8351  -12.5540 C   0  0  0  0  0  0  0  0  0  0  0  0
   -9.1244   47.6104  -13.8339 C   0  0  0  0  0  0  0  0  0  0  0  0
   -8.4090   46.0608  -12.0028 C   0  0  0  0  0  0  0  0  0  0  0  0
  -15.7198   42.9043  -13.1127 C   0  0  0  0  0  0  0  0  0  0  0  0
  -19.7963   42.1825  -14.1650 F   0  0  0  0  0  0  0  0  0  0  0  0
  -16.5716   41.1987  -14.3706 N   0  0  0  0  0  0  0  0  0  0  0  0
  -13.8922   45.5362  -11.1974 N   0  0  0  0  0  0  0  0  0  0  0  0
  -11.7654   46.1127  -11.9829 N   0  0  0  0  0  0  0  0  0  0  0  0
  -13.1884   44.1334  -13.2391 S   0  0  0  0  0  0  0  0  0  0  0  0
  -15.0501   43.5771  -16.5803 Cl  0  0  0  0  0  0  0  0  0  0  0  0
  -13.5828   40.0017  -12.8260 Cl  0  0  0  0  0  0  0  0  0  0  0  0
  -11.4237   39.7876  -14.6544 H   0  0  0  0  0  0  0  0  0  0  0  0
  -10.9920   40.9719  -16.7972 H   0  0  0  0  0  0  0  0  0  0  0  0
  -12.6345   42.6264  -17.6613 H   0  0  0  0  0  0  0  0  0  0  0  0
  -18.9624   40.4028  -14.5599 H   0  0  0  0  0  0  0  0  0  0  0  0
  -17.6396   43.3364  -12.0403 H   0  0  0  0  0  0  0  0  0  0  0  0
  -15.8666   44.6935  -10.9191 H   0  0  0  0  0  0  0  0  0  0  0  0
   -9.8211   47.6659  -11.8138 H   0  0  0  0  0  0  0  0  0  0  0  0
   -8.5769   48.5301  -13.5801 H   0  0  0  0  0  0  0  0  0  0  0  0
   -8.4739   46.9473  -14.4231 H   0  0  0  0  0  0  0  0  0  0  0  0
  -10.0174   47.8662  -14.4231 H   0  0  0  0  0  0  0  0  0  0  0  0
   -8.4384   46.0826  -10.9034 H   0  0  0  0  0  0  0  0  0  0  0  0
   -8.5172   45.0234  -12.3520 H   0  0  0  0  0  0  0  0  0  0  0  0
   -7.4482   46.4669  -12.3520 H   0  0  0  0  0  0  0  0  0  0  0  0
  -11.6923   46.8142  -11.2322 H   0  0  0  0  0  0  0  0  0  0  0  0
  7  1  1  0
  2  3  2  0
  2 16  1  0
  2 27  1  0
  3  4  1  0
  4  5  2  0
  5 14  1  0
  6  7  1  0
  6  8  1  0
  6 22  2  0
  7 21  1  0
  8 20  2  0
  9 17  2  0
  9 23  1  0
 10 23  2  0
 10 24  1  0
 10 25  1  0
 11 12  1  0
 11 15  2  0
 11 24  1  0
 12 18  1  0
 12 19  1  0
 13 16  1  0
 13 20  1  0
 13 22  1  0
 14 16  2  0
 14 26  1  0
 17 20  1  0
 17 25  1  0
  3 28  1  0
  4 29  1  0
  5 30  1  0
  7 31  1  6
  8 32  1  0
  9 33  1  0
 12 34  1  1
 18 35  1  0
 18 36  1  0
 18 37  1  0
 19 38  1  0
 19 39  1  0
 19 40  1  0
 24 41  1  0
M  END
>  <filename_input>  (1) 
8AAU_LH0_docked.sdf

>  <pdb_id>  (1) 
8AAU_LH0

>  <pose_rank>  (1) 
0

>  <num_atoms_heavy>  (1) 
27

>  <num_torsions>  (1) 
4

>  <pose>  (1) 
[-17.539635347973523, 41.71742460189911, -13.606336479503877, -0.4515683756871489, -5.90072420574649, -1.7766964826638907, -9.328789458038553, -12.6927760509699, 6.434179549636067, -12.540562831087371]

>  <energy>  (1) 
-1253.471993946192

>  <inter_energy>  (1) 
-1251.5531061867994

>  <intra_energy>  (1) 
32.95372919023902

>  <rmsd>  (1) 
0.32271

>  <sdf_rank>  (1) 
0

$$$$

     RDKit          3D

 41 43  0  0  0  0  0  0  0  0999 V2000
  -19.8456   41.7209  -14.8679 F   0  0  0  0  0  0  0  0  0  0  0  0
  -14.4716   41.7803  -15.9937 C   0  0  0  0  0  0  0  0  0  0  0  0
  -13.3430   41.3990  -16.7008 C   0  0  0  0  0  0  0  0  0  0  0  0
  -12.3637   40.6572  -16.0652 C   0  0  0  0  0  0  0  0  0  0  0  0
  -12.5117   40.2963  -14.7368 C   0  0  0  0  0  0  0  0  0  0  0  0
  -17.9220   41.8152  -13.4980 C   0  0  0  0  0  0  0  0  0  0  0  0
  -19.4108   41.4002  -13.6623 C   0  0  2  0  0  0  0  0  0  0  0  0
  -17.3671   42.8670  -12.7403 C   0  0  0  0  0  0  0  0  0  0  0  0
  -15.0292   44.5655  -11.4623 C   0  0  0  0  0  0  0  0  0  0  0  0
  -13.0556   45.2065  -12.1636 C   0  0  0  0  0  0  0  0  0  0  0  0
  -10.9269   45.8375  -13.1423 C   0  0  0  0  0  0  0  0  0  0  0  0
   -9.7046   46.7009  -12.9244 C   0  0  2  0  0  0  0  0  0  0  0  0
  -15.8226   41.8485  -13.9444 N   0  0  0  0  0  0  0  0  0  0  0  0
  -13.6477   40.6844  -14.0493 C   0  0  0  0  0  0  0  0  0  0  0  0
  -11.0234   45.0804  -14.1059 O   0  0  0  0  0  0  0  0  0  0  0  0
  -14.6412   41.4399  -14.6619 C   0  0  0  0  0  0  0  0  0  0  0  0
  -14.9754   43.7583  -12.5627 C   0  0  0  0  0  0  0  0  0  0  0  0
   -9.2073   46.5216  -11.4993 C   0  0  0  0  0  0  0  0  0  0  0  0
  -10.0778   48.1492  -13.1903 C   0  0  0  0  0  0  0  0  0  0  0  0
  -16.0107   42.8762  -13.0676 C   0  0  0  0  0  0  0  0  0  0  0  0
  -19.5387   40.0815  -13.5367 F   0  0  0  0  0  0  0  0  0  0  0  0
  -16.9985   41.1686  -14.2188 N   0  0  0  0  0  0  0  0  0  0  0  0
  -13.9418   45.3762  -11.2222 N   0  0  0  0  0  0  0  0  0  0  0  0
  -11.8822   45.9377  -12.1788 N   0  0  0  0  0  0  0  0  0  0  0  0
  -13.4693   44.0505  -13.3789 S   0  0  0  0  0  0  0  0  0  0  0  0
  -13.8417   40.1370  -12.4232 Cl  0  0  0  0  0  0  0  0  0  0  0  0
  -15.7160   42.6547  -16.8025 Cl  0  0  0  0  0  0  0  0  0  0  0  0
  -13.2269   41.6832  -17.7571 H   0  0  0  0  0  0  0  0  0  0  0  0
  -11.4628   40.3524  -16.6180 H   0  0  0  0  0  0  0  0  0  0  0  0
  -11.7326   39.7060  -14.2323 H   0  0  0  0  0  0  0  0  0  0  0  0
  -19.9902   41.9236  -12.8875 H   0  0  0  0  0  0  0  0  0  0  0  0
  -17.8908   43.5362  -12.0417 H   0  0  0  0  0  0  0  0  0  0  0  0
  -15.9042   44.5680  -10.7957 H   0  0  0  0  0  0  0  0  0  0  0  0
   -8.8972   46.4070  -13.6113 H   0  0  0  0  0  0  0  0  0  0  0  0
  -10.0020   46.8081  -10.7949 H   0  0  0  0  0  0  0  0  0  0  0  0
   -8.9346   45.4685  -11.3359 H   0  0  0  0  0  0  0  0  0  0  0  0
   -8.3253   47.1583  -11.3359 H   0  0  0  0  0  0  0  0  0  0  0  0
  -10.2132   48.6746  -12.2334 H   0  0  0  0  0  0  0  0  0  0  0  0
   -9.2755   48.6350  -13.7650 H   0  0  0  0  0  0  0  0  0  0  0  0
  -11.0150   48.1867  -13.7650 H   0  0  0  0  0  0  0  0  0  0  0  0
  -11.7205   46.6029  -11.4092 H   0  0  0  0  0  0  0  0  0  0  0  0
  7  1  1  0
  2  3  2  0
  2 16  1  0
  2 27  1  0
  3  4  1  0
  4  5  2  0
  5 14  1  0
  6  7  1  0
  6  8  1  0
  6 22  2  0
  7 21  1  0
  8 20  2  0
  9 17  2  0
  9 23  1  0
 10 23  2  0
 10 24  1  0
 10 25  1  0
 11 12  1  0
 11 15  2  0
 11 24  1  0
 12 18  1  0
 12 19  1  0
 13 16  1  0
 13 20  1  0
 13 22  1  0
 14 16  2  0
 14 26  1  0
 17 20  1  0
 17 25  1  0
  3 28  1  0
  4 29  1  0
  5 30  1  0
  7 31  1  1
  8 32  1  0
  9 33  1  0
 12 34  1  6
 18 35  1  0
 18 36  1  0
 18 37  1  0
 19 38  1  0
 19 39  1  0
 19 40  1  0
 24 41  1  0
M  END
>  <filename_input>  (2) 
8AAU_LH0_docked.sdf

>  <pdb_id>  (2) 
8AAU_LH0

>  <pose_rank>  (2) 
1

>  <num_atoms_heavy>  (2) 
27

>  <num_torsions>  (2) 
4

>  <pose>  (2) 
[-17.921981767512925, 41.815187451045276, -13.4980497979137, -0.05377115361139775, 0.09445053416995366, -0.05679937903959003, -6.413955355178691, 0.03232275558565013, 3.293945140810111, -3.297465891833988]

>  <energy>  (2) 
-1211.934753179943

>  <inter_energy>  (2) 
-1215.7918150764685

>  <intra_energy>  (2) 
31.545492660838015

>  <rmsd>  (2) 
0.656994

>  <sdf_rank>  (2) 
0

$$$$

     RDKit          3D

 41 43  0  0  0  0  0  0  0  0999 V2000
  -18.8378   41.0793  -14.1338 F   0  0  0  0  0  0  0  0  0  0  0  0
  -12.9638   42.1532  -15.5743 C   0  0  0  0  0  0  0  0  0  0  0  0
  -11.7358   41.9926  -16.1950 C   0  0  0  0  0  0  0  0  0  0  0  0
  -10.7995   41.1423  -15.6349 C   0  0  0  0  0  0  0  0  0  0  0  0
  -11.0882   40.4559  -14.4678 C   0  0  0  0  0  0  0  0  0  0  0  0
  -16.6040   41.1579  -13.3658 C   0  0  0  0  0  0  0  0  0  0  0  0
  -17.9303   40.3586  -13.4995 C   0  0  2  0  0  0  0  0  0  0  0  0
  -16.3722   42.4059  -12.7516 C   0  0  0  0  0  0  0  0  0  0  0  0
  -14.6801   44.8829  -11.7950 C   0  0  0  0  0  0  0  0  0  0  0  0
  -12.7731   45.7812  -12.3898 C   0  0  0  0  0  0  0  0  0  0  0  0
  -10.6676   46.6456  -13.2309 C   0  0  0  0  0  0  0  0  0  0  0  0
   -9.6828   47.7838  -13.0836 C   0  0  2  0  0  0  0  0  0  0  0  0
  -14.5588   41.6681  -13.7714 N   0  0  0  0  0  0  0  0  0  0  0  0
  -12.3216   40.6277  -13.8652 C   0  0  0  0  0  0  0  0  0  0  0  0
  -10.4583   45.7000  -13.9878 O   0  0  0  0  0  0  0  0  0  0  0  0
  -13.2755   41.4852  -14.4017 C   0  0  0  0  0  0  0  0  0  0  0  0
  -14.2931   43.8939  -12.6536 C   0  0  0  0  0  0  0  0  0  0  0  0
   -9.3293   48.3268  -14.4585 C   0  0  0  0  0  0  0  0  0  0  0  0
   -8.4452   47.2675  -12.3699 C   0  0  0  0  0  0  0  0  0  0  0  0
  -15.0456   42.7187  -13.0505 C   0  0  0  0  0  0  0  0  0  0  0  0
  -17.7335   39.2551  -14.2170 F   0  0  0  0  0  0  0  0  0  0  0  0
  -15.5103   40.6807  -13.9711 N   0  0  0  0  0  0  0  0  0  0  0  0
  -13.8197   45.9458  -11.6297 N   0  0  0  0  0  0  0  0  0  0  0  0
  -11.7719   46.7335  -12.4410 N   0  0  0  0  0  0  0  0  0  0  0  0
  -12.7540   44.3325  -13.3307 S   0  0  0  0  0  0  0  0  0  0  0  0
  -12.6813   39.6849  -12.4641 Cl  0  0  0  0  0  0  0  0  0  0  0  0
  -14.1493   43.1680  -16.3038 Cl  0  0  0  0  0  0  0  0  0  0  0  0
  -11.5076   42.5358  -17.1239 H   0  0  0  0  0  0  0  0  0  0  0  0
   -9.8207   41.0108  -16.1193 H   0  0  0  0  0  0  0  0  0  0  0  0
  -10.3432   39.7795  -14.0234 H   0  0  0  0  0  0  0  0  0  0  0  0
  -18.2721   40.1078  -12.4845 H   0  0  0  0  0  0  0  0  0  0  0  0
  -17.0839   43.0040  -12.1636 H   0  0  0  0  0  0  0  0  0  0  0  0
  -15.6388   44.8328  -11.2579 H   0  0  0  0  0  0  0  0  0  0  0  0
  -10.1228   48.6005  -12.4925 H   0  0  0  0  0  0  0  0  0  0  0  0
   -8.7322   49.2440  -14.3480 H   0  0  0  0  0  0  0  0  0  0  0  0
   -8.7472   47.5747  -15.0112 H   0  0  0  0  0  0  0  0  0  0  0  0
  -10.2526   48.5547  -15.0112 H   0  0  0  0  0  0  0  0  0  0  0  0
   -8.5962   47.3305  -11.2821 H   0  0  0  0  0  0  0  0  0  0  0  0
   -8.2675   46.2201  -12.6553 H   0  0  0  0  0  0  0  0  0  0  0  0
   -7.5758   47.8779  -12.6553 H   0  0  0  0  0  0  0  0  0  0  0  0
  -11.8685   47.5651  -11.8410 H   0  0  0  0  0  0  0  0  0  0  0  0
  7  1  1  0
  2  3  2  0
  2 16  1  0
  2 27  1  0
  3  4  1  0
  4  5  2  0
  5 14  1  0
  6  7  1  0
  6  8  1  0
  6 22  2  0
  7 21  1  0
  8 20  2  0
  9 17  2  0
  9 23  1  0
 10 23  2  0
 10 24  1  0
 10 25  1  0
 11 12  1  0
 11 15  2  0
 11 24  1  0
 12 18  1  0
 12 19  1  0
 13 16  1  0
 13 20  1  0
 13 22  1  0
 14 16  2  0
 14 26  1  0
 17 20  1  0
 17 25  1  0
  3 28  1  0
  4 29  1  0
  5 30  1  0
  7 31  1  1
  8 32  1  0
  9 33  1  0
 12 34  1  1
 18 35  1  0
 18 36  1  0
 18 37  1  0
 19 38  1  0
 19 39  1  0
 19 40  1  0
 24 41  1  0
M  END
>  <filename_input>  (3) 
8AAU_LH0_docked.sdf

>  <pdb_id>  (3) 
8AAU_LH0

>  <pose_rank>  (3) 
2

>  <num_atoms_heavy>  (3) 
27

>  <num_torsions>  (3) 
4

>  <pose>  (3) 
[-16.603997063342483, 41.15788173427532, -13.36577113727418, -0.20087811972914033, 0.045566290439751266, 0.19224401716026313, -5.962510991364466, -0.11848701635328708, 0.17705544267217224, 2.1276930233028306]

>  <energy>  (3) 
-845.3315528962959

>  <inter_energy>  (3) 
-883.6519638238274

>  <intra_energy>  (3) 
46.11817462762464

>  <rmsd>  (3) 
1.09454

>  <sdf_rank>  (3) 
0

$$$$

     RDKit          3D

 41 43  0  0  0  0  0  0  0  0999 V2000
  -19.8742   41.7456  -14.4797 F   0  0  0  0  0  0  0  0  0  0  0  0
  -14.4702   43.0574  -16.3006 C   0  0  0  0  0  0  0  0  0  0  0  0
  -13.4191   43.0534  -17.2030 C   0  0  0  0  0  0  0  0  0  0  0  0
  -12.4514   42.0693  -17.1116 C   0  0  0  0  0  0  0  0  0  0  0  0
  -12.5345   41.0960  -16.1306 C   0  0  0  0  0  0  0  0  0  0  0  0
  -17.6469   41.6123  -13.7005 C   0  0  0  0  0  0  0  0  0  0  0  0
  -19.0624   40.9750  -13.7780 C   0  0  2  0  0  0  0  0  0  0  0  0
  -17.1456   42.5642  -12.7889 C   0  0  0  0  0  0  0  0  0  0  0  0
  -15.1693   44.8563  -11.8387 C   0  0  0  0  0  0  0  0  0  0  0  0
  -13.0302   45.2448  -12.1048 C   0  0  0  0  0  0  0  0  0  0  0  0
  -10.6729   45.5553  -12.5887 C   0  0  0  0  0  0  0  0  0  0  0  0
   -9.4666   46.3960  -12.2350 C   0  0  2  0  0  0  0  0  0  0  0  0
  -15.6744   42.1244  -14.3747 N   0  0  0  0  0  0  0  0  0  0  0  0
  -13.5938   41.1158  -15.2411 C   0  0  0  0  0  0  0  0  0  0  0  0
  -10.5973   44.6064  -13.3664 O   0  0  0  0  0  0  0  0  0  0  0  0
  -14.5732   42.1007  -15.3045 C   0  0  0  0  0  0  0  0  0  0  0  0
  -14.9195   43.8220  -12.6948 C   0  0  0  0  0  0  0  0  0  0  0  0
   -8.4921   46.3969  -13.4014 C   0  0  0  0  0  0  0  0  0  0  0  0
   -8.8193   45.8185  -10.9880 C   0  0  0  0  0  0  0  0  0  0  0  0
  -15.8754   42.8914  -13.2650 C   0  0  0  0  0  0  0  0  0  0  0  0
  -19.0051   39.7983  -14.3972 F   0  0  0  0  0  0  0  0  0  0  0  0
  -16.7617   41.3134  -14.6583 N   0  0  0  0  0  0  0  0  0  0  0  0
  -14.1036   45.6561  -11.4892 N   0  0  0  0  0  0  0  0  0  0  0  0
  -11.8252   45.9067  -11.9565 N   0  0  0  0  0  0  0  0  0  0  0  0
  -13.2356   43.8638  -13.1220 S   0  0  0  0  0  0  0  0  0  0  0  0
  -13.7154   39.8332  -14.0914 Cl  0  0  0  0  0  0  0  0  0  0  0  0
  -15.7045   44.2495  -16.4516 Cl  0  0  0  0  0  0  0  0  0  0  0  0
  -13.3547   43.8251  -17.9843 H   0  0  0  0  0  0  0  0  0  0  0  0
  -11.6116   42.0600  -17.8220 H   0  0  0  0  0  0  0  0  0  0  0  0
  -11.7647   40.3135  -16.0590 H   0  0  0  0  0  0  0  0  0  0  0  0
  -19.4313   40.8562  -12.7485 H   0  0  0  0  0  0  0  0  0  0  0  0
  -17.6476   42.9630  -11.8951 H   0  0  0  0  0  0  0  0  0  0  0  0
  -16.1792   45.0429  -11.4447 H   0  0  0  0  0  0  0  0  0  0  0  0
   -9.7661   47.4353  -12.0347 H   0  0  0  0  0  0  0  0  0  0  0  0
   -7.4611   46.3977  -13.0179 H   0  0  0  0  0  0  0  0  0  0  0  0
   -8.6542   45.4986  -14.0153 H   0  0  0  0  0  0  0  0  0  0  0  0
   -8.6557   47.2949  -14.0153 H   0  0  0  0  0  0  0  0  0  0  0  0
   -9.2983   46.2459  -10.0948 H   0  0  0  0  0  0  0  0  0  0  0  0
   -8.9434   44.7255  -10.9831 H   0  0  0  0  0  0  0  0  0  0  0  0
   -7.7475   46.0659  -10.9831 H   0  0  0  0  0  0  0  0  0  0  0  0
  -11.7982   46.7201  -11.3253 H   0  0  0  0  0  0  0  0  0  0  0  0
  7  1  1  0
  2  3  2  0
  2 16  1  0
  2 27  1  0
  3  4  1  0
  4  5  2  0
  5 14  1  0
  6  7  1  0
  6  8  1  0
  6 22  2  0
  7 21  1  0
  8 20  2  0
  9 17  2  0
  9 23  1  0
 10 23  2  0
 10 24  1  0
 10 25  1  0
 11 12  1  0
 11 15  2  0
 11 24  1  0
 12 18  1  0
 12 19  1  0
 13 16  1  0
 13 20  1  0
 13 22  1  0
 14 16  2  0
 14 26  1  0
 17 20  1  0
 17 25  1  0
  3 28  1  0
  4 29  1  0
  5 30  1  0
  7 31  1  1
  8 32  1  0
  9 33  1  0
 12 34  1  1
 18 35  1  0
 18 36  1  0
 18 37  1  0
 19 38  1  0
 19 39  1  0
 19 40  1  0
 24 41  1  0
M  END
>  <filename_input>  (4) 
8AAU_LH0_docked.sdf

>  <pdb_id>  (4) 
8AAU_LH0

>  <pose_rank>  (4) 
3

>  <num_atoms_heavy>  (4) 
27

>  <num_torsions>  (4) 
4

>  <pose>  (4) 
[-17.646926977994315, 41.61232309573099, -13.700469438019766, 0.16097764081326085, 0.2365622127123174, 0.12863322119274248, -6.042898288886388, -0.616551890799357, -0.2164318281113675, 2.608033951714519]

>  <energy>  (4) 
-1119.5587046000799

>  <inter_energy>  (4) 
-1144.3075406965195

>  <intra_energy>  (4) 
31.256247982680303

>  <rmsd>  (4) 
0.912933

>  <sdf_rank>  (4) 
0

$$$$

     RDKit          3D

 41 43  0  0  0  0  0  0  0  0999 V2000
  -11.8496   38.2603  -17.5132 F   0  0  0  0  0  0  0  0  0  0  0  0
  -14.8864   42.7171  -15.1284 C   0  0  0  0  0  0  0  0  0  0  0  0
  -16.1295   42.9969  -14.5849 C   0  0  0  0  0  0  0  0  0  0  0  0
  -16.5868   42.2457  -13.5172 C   0  0  0  0  0  0  0  0  0  0  0  0
  -15.8083   41.2271  -12.9947 C   0  0  0  0  0  0  0  0  0  0  0  0
  -11.3804   40.2252  -16.2865 C   0  0  0  0  0  0  0  0  0  0  0  0
  -10.8450   38.9739  -17.0370 C   0  0  2  0  0  0  0  0  0  0  0  0
  -10.6721   41.3386  -15.7893 C   0  0  0  0  0  0  0  0  0  0  0  0
  -12.2282   43.8987  -13.4300 C   0  0  0  0  0  0  0  0  0  0  0  0
  -10.7825   45.5398  -13.5496 C   0  0  0  0  0  0  0  0  0  0  0  0
   -9.1215   47.2770  -13.8828 C   0  0  0  0  0  0  0  0  0  0  0  0
   -8.6755   48.6342  -13.3868 C   0  0  2  0  0  0  0  0  0  0  0  0
  -12.8010   41.4233  -15.2122 N   0  0  0  0  0  0  0  0  0  0  0  0
  -14.5684   40.9657  -13.5498 C   0  0  0  0  0  0  0  0  0  0  0  0
   -8.4984   46.6649  -14.7476 O   0  0  0  0  0  0  0  0  0  0  0  0
  -14.0908   41.6986  -14.6306 C   0  0  0  0  0  0  0  0  0  0  0  0
  -11.4169   43.3349  -14.3729 C   0  0  0  0  0  0  0  0  0  0  0  0
   -8.1586   49.4546  -14.5572 C   0  0  0  0  0  0  0  0  0  0  0  0
   -7.5913   48.4383  -12.3410 C   0  0  0  0  0  0  0  0  0  0  0  0
  -11.6151   42.0840  -15.0806 C   0  0  0  0  0  0  0  0  0  0  0  0
  -10.0987   39.3430  -18.0753 F   0  0  0  0  0  0  0  0  0  0  0  0
  -12.6792   40.2680  -15.9675 N   0  0  0  0  0  0  0  0  0  0  0  0
  -11.8683   45.1384  -12.9494 N   0  0  0  0  0  0  0  0  0  0  0  0
  -10.2326   46.7786  -13.2760 N   0  0  0  0  0  0  0  0  0  0  0  0
  -10.1221   44.4437  -14.7101 S   0  0  0  0  0  0  0  0  0  0  0  0
  -13.5864   39.7514  -12.8132 Cl  0  0  0  0  0  0  0  0  0  0  0  0
  -14.2944   43.6905  -16.4206 Cl  0  0  0  0  0  0  0  0  0  0  0  0
  -16.7467   43.8082  -14.9983 H   0  0  0  0  0  0  0  0  0  0  0  0
  -17.5739   42.4588  -13.0811 H   0  0  0  0  0  0  0  0  0  0  0  0
  -16.1726   40.6305  -12.1453 H   0  0  0  0  0  0  0  0  0  0  0  0
  -10.2531   38.3840  -16.3216 H   0  0  0  0  0  0  0  0  0  0  0  0
   -9.6059   41.5696  -15.9299 H   0  0  0  0  0  0  0  0  0  0  0  0
  -13.1313   43.3844  -13.0695 H   0  0  0  0  0  0  0  0  0  0  0  0
   -9.5186   49.1749  -12.9319 H   0  0  0  0  0  0  0  0  0  0  0  0
   -7.6081   50.3282  -14.1779 H   0  0  0  0  0  0  0  0  0  0  0  0
   -7.4869   48.8359  -15.1704 H   0  0  0  0  0  0  0  0  0  0  0  0
   -9.0066   49.7935  -15.1704 H   0  0  0  0  0  0  0  0  0  0  0  0
   -8.0322   48.5180  -11.3364 H   0  0  0  0  0  0  0  0  0  0  0  0
   -7.1380   47.4437  -12.4647 H   0  0  0  0  0  0  0  0  0  0  0  0
   -6.8186   49.2114  -12.4647 H   0  0  0  0  0  0  0  0  0  0  0  0
  -10.6951   47.3633  -12.5652 H   0  0  0  0  0  0  0  0  0  0  0  0
  7  1  1  0
  2  3  2  0
  2 16  1  0
  2 27  1  0
  3  4  1  0
  4  5  2  0
  5 14  1  0
  6  7  1  0
  6  8  1  0
  6 22  2  0
  7 21  1  0
  8 20  2  0
  9 17  2  0
  9 23  1  0
 10 23  2  0
 10 24  1  0
 10 25  1  0
 11 12  1  0
 11 15  2  0
 11 24  1  0
 12 18  1  0
 12 19  1  0
 13 16  1  0
 13 20  1  0
 13 22  1  0
 14 16  2  0
 14 26  1  0
 17 20  1  0
 17 25  1  0
  3 28  1  0
  4 29  1  0
  5 30  1  0
  7 31  1  1
  8 32  1  0
  9 33  1  0
 12 34  1  1
 18 35  1  0
 18 36  1  0
 18 37  1  0
 19 38  1  0
 19 39  1  0
 19 40  1  0
 24 41  1  0
M  END
>  <filename_input>  (5) 
8AAU_LH0_docked.sdf

>  <pdb_id>  (5) 
8AAU_LH0

>  <pose_rank>  (5) 
4

>  <num_atoms_heavy>  (5) 
27

>  <num_torsions>  (5) 
4

>  <pose>  (5) 
[-11.380416280328756, 40.22520902080209, -16.286477789446113, -1.276598448272063, -2.4406558759809696, -1.5382999471984278, -3.3205320129357565, 3.1984969172787907, -0.04027987374483352, -1.8656338333022253]

>  <energy>  (5) 
-549.9114855147964

>  <inter_energy>  (5) 
-569.4024829755211

>  <intra_energy>  (5) 
26.369396268365673

>  <rmsd>  (5) 
4.60955

>  <sdf_rank>  (5) 
0

$$$$

     RDKit          3D

 41 43  0  0  0  0  0  0  0  0999 V2000
  -19.3895   42.2515  -12.4806 F   0  0  0  0  0  0  0  0  0  0  0  0
  -14.6549   44.3692  -14.8523 C   0  0  0  0  0  0  0  0  0  0  0  0
  -13.5483   45.1525  -14.5676 C   0  0  0  0  0  0  0  0  0  0  0  0
  -12.5856   44.6744  -13.6970 C   0  0  0  0  0  0  0  0  0  0  0  0
  -12.7247   43.4241  -13.1190 C   0  0  0  0  0  0  0  0  0  0  0  0
  -17.9696   41.5832  -14.2478 C   0  0  0  0  0  0  0  0  0  0  0  0
  -19.3187   41.4093  -13.4959 C   0  0  2  0  0  0  0  0  0  0  0  0
  -17.4437   40.8358  -15.3217 C   0  0  0  0  0  0  0  0  0  0  0  0
  -14.5021   41.6858  -17.3894 C   0  0  0  0  0  0  0  0  0  0  0  0
  -13.7138   39.7613  -18.0767 C   0  0  0  0  0  0  0  0  0  0  0  0
  -13.0164   37.5331  -18.7374 C   0  0  0  0  0  0  0  0  0  0  0  0
  -12.1102   36.7817  -19.6868 C   0  0  2  0  0  0  0  0  0  0  0  0
  -15.9831   42.3205  -14.5905 N   0  0  0  0  0  0  0  0  0  0  0  0
  -13.8357   42.6561  -13.4188 C   0  0  0  0  0  0  0  0  0  0  0  0
  -13.6929   36.9536  -17.8905 O   0  0  0  0  0  0  0  0  0  0  0  0
  -14.8231   43.1185  -14.2817 C   0  0  0  0  0  0  0  0  0  0  0  0
  -15.1678   40.9042  -16.4888 C   0  0  0  0  0  0  0  0  0  0  0  0
  -10.6863   37.2914  -19.5354 C   0  0  0  0  0  0  0  0  0  0  0  0
  -12.6123   36.9887  -21.1054 C   0  0  0  0  0  0  0  0  0  0  0  0
  -16.1489   41.3226  -15.5053 C   0  0  0  0  0  0  0  0  0  0  0  0
  -20.3375   41.6851  -14.3066 F   0  0  0  0  0  0  0  0  0  0  0  0
  -17.1083   42.5057  -13.8034 N   0  0  0  0  0  0  0  0  0  0  0  0
  -13.6673   41.0483  -18.2806 N   0  0  0  0  0  0  0  0  0  0  0  0
  -12.9943   38.8870  -18.8704 N   0  0  0  0  0  0  0  0  0  0  0  0
  -14.7467   39.2457  -16.7916 S   0  0  0  0  0  0  0  0  0  0  0  0
  -13.9291   41.0654  -12.7537 Cl  0  0  0  0  0  0  0  0  0  0  0  0
  -15.8238   44.9421  -15.9806 Cl  0  0  0  0  0  0  0  0  0  0  0  0
  -13.4364   46.1447  -15.0291 H   0  0  0  0  0  0  0  0  0  0  0  0
  -11.7051   45.2906  -13.4627 H   0  0  0  0  0  0  0  0  0  0  0  0
  -11.9584   43.0445  -12.4271 H   0  0  0  0  0  0  0  0  0  0  0  0
  -19.3720   40.3687  -13.1431 H   0  0  0  0  0  0  0  0  0  0  0  0
  -17.9459   40.0404  -15.8919 H   0  0  0  0  0  0  0  0  0  0  0  0
  -14.6272   42.7785  -17.4025 H   0  0  0  0  0  0  0  0  0  0  0  0
  -12.1181   35.7060  -19.4573 H   0  0  0  0  0  0  0  0  0  0  0  0
  -10.4400   37.3795  -18.4670 H   0  0  0  0  0  0  0  0  0  0  0  0
   -9.9915   36.5861  -20.0149 H   0  0  0  0  0  0  0  0  0  0  0  0
  -10.5969   38.2773  -20.0149 H   0  0  0  0  0  0  0  0  0  0  0  0
  -13.6290   37.4077  -21.0771 H   0  0  0  0  0  0  0  0  0  0  0  0
  -11.9435   37.6845  -21.6333 H   0  0  0  0  0  0  0  0  0  0  0  0
  -12.6280   36.0237  -21.6333 H   0  0  0  0  0  0  0  0  0  0  0  0
  -12.4021   39.2874  -19.6118 H   0  0  0  0  0  0  0  0  0  0  0  0
  7  1  1  0
  2  3  2  0
  2 16  1  0
  2 27  1  0
  3  4  1  0
  4  5  2  0
  5 14  1  0
  6  7  1  0
  6  8  1  0
  6 22  2  0
  7 21  1  0
  8 20  2  0
  9 17  2  0
  9 23  1  0
 10 23  2  0
 10 24  1  0
 10 25  1  0
 11 12  1  0
 11 15  2  0
 11 24  1  0
 12 18  1  0
 12 19  1  0
 13 16  1  0
 13 20  1  0
 13 22  1  0
 14 16  2  0
 14 26  1  0
 17 20  1  0
 17 25  1  0
  3 28  1  0
  4 29  1  0
  5 30  1  0
  7 31  1  1
  8 32  1  0
  9 33  1  0
 12 34  1  1
 18 35  1  0
 18 36  1  0
 18 37  1  0
 19 38  1  0
 19 39  1  0
 19 40  1  0
 24 41  1  0
M  END
>  <filename_input>  (6) 
8AAU_LH0_docked.sdf

>  <pdb_id>  (6) 
8AAU_LH0

>  <pose_rank>  (6) 
5

>  <num_atoms_heavy>  (6) 
27

>  <num_torsions>  (6) 
4

>  <pose>  (6) 
[-17.969590477970407, 41.58315226163425, -14.247757615565549, -2.9588098572231143, -0.6512192452149818, 0.4369428240457457, 3.3020128697605022, 1.9500974076263493, -2.861078521200434, -2.1173466722750733]

>  <energy>  (6) 
-729.385061395395

>  <inter_energy>  (6) 
-684.6000939228471

>  <intra_energy>  (6) 
5.287997912732739

>  <rmsd>  (6) 
6.50194

>  <sdf_rank>  (6) 
0

$$$$

     RDKit          3D

 41 43  0  0  0  0  0  0  0  0999 V2000
  -13.2802   39.0176  -18.5471 F   0  0  0  0  0  0  0  0  0  0  0  0
  -14.7308   41.8786  -13.0481 C   0  0  0  0  0  0  0  0  0  0  0  0
  -15.6190   42.3735  -12.1073 C   0  0  0  0  0  0  0  0  0  0  0  0
  -16.4891   43.3877  -12.4647 C   0  0  0  0  0  0  0  0  0  0  0  0
  -16.4748   43.9004  -13.7506 C   0  0  0  0  0  0  0  0  0  0  0  0
  -12.9767   40.3380  -16.6106 C   0  0  0  0  0  0  0  0  0  0  0  0
  -12.8891   38.9417  -17.2876 C   0  0  2  0  0  0  0  0  0  0  0  0
  -12.0336   41.3863  -16.6019 C   0  0  0  0  0  0  0  0  0  0  0  0
  -12.4792   44.5294  -14.4650 C   0  0  0  0  0  0  0  0  0  0  0  0
  -10.7923   45.7387  -15.1647 C   0  0  0  0  0  0  0  0  0  0  0  0
   -8.9206   46.9493  -16.1233 C   0  0  0  0  0  0  0  0  0  0  0  0
   -8.1331   48.2362  -16.0205 C   0  0  2  0  0  0  0  0  0  0  0  0
  -13.7562   41.8503  -15.3018 N   0  0  0  0  0  0  0  0  0  0  0  0
  -15.5822   43.3901  -14.6762 C   0  0  0  0  0  0  0  0  0  0  0  0
   -8.6053   46.0560  -16.9067 O   0  0  0  0  0  0  0  0  0  0  0  0
  -14.6896   42.3788  -14.3389 C   0  0  0  0  0  0  0  0  0  0  0  0
  -11.9883   43.6238  -15.3618 C   0  0  0  0  0  0  0  0  0  0  0  0
   -7.9818   48.6202  -14.5577 C   0  0  0  0  0  0  0  0  0  0  0  0
   -8.8672   49.3192  -16.7923 C   0  0  0  0  0  0  0  0  0  0  0  0
  -12.5572   42.3407  -15.7288 C   0  0  0  0  0  0  0  0  0  0  0  0
  -11.6302   38.5098  -17.2927 F   0  0  0  0  0  0  0  0  0  0  0  0
  -14.0412   40.6084  -15.8462 N   0  0  0  0  0  0  0  0  0  0  0  0
  -11.8002   45.7211  -14.3376 N   0  0  0  0  0  0  0  0  0  0  0  0
   -9.9704   46.8462  -15.2640 N   0  0  0  0  0  0  0  0  0  0  0  0
  -10.5917   44.3186  -16.1276 S   0  0  0  0  0  0  0  0  0  0  0  0
  -15.6569   43.9879  -16.2944 Cl  0  0  0  0  0  0  0  0  0  0  0  0
  -13.6878   40.5768  -12.6177 Cl  0  0  0  0  0  0  0  0  0  0  0  0
  -15.6323   41.9641  -11.0864 H   0  0  0  0  0  0  0  0  0  0  0  0
  -17.1959   43.7890  -11.7234 H   0  0  0  0  0  0  0  0  0  0  0  0
  -17.1674   44.7066  -14.0340 H   0  0  0  0  0  0  0  0  0  0  0  0
  -13.5344   38.2550  -16.7202 H   0  0  0  0  0  0  0  0  0  0  0  0
  -11.0888   41.4402  -17.1625 H   0  0  0  0  0  0  0  0  0  0  0  0
  -13.3790   44.3160  -13.8694 H   0  0  0  0  0  0  0  0  0  0  0  0
   -7.1283   48.1089  -16.4498 H   0  0  0  0  0  0  0  0  0  0  0  0
   -8.3112   47.7842  -13.9232 H   0  0  0  0  0  0  0  0  0  0  0  0
   -6.9267   48.8478  -14.3456 H   0  0  0  0  0  0  0  0  0  0  0  0
   -8.5979   49.5064  -14.3456 H   0  0  0  0  0  0  0  0  0  0  0  0
   -9.3400   50.0168  -16.0854 H   0  0  0  0  0  0  0  0  0  0  0  0
   -8.1531   49.8665  -17.4253 H   0  0  0  0  0  0  0  0  0  0  0  0
   -9.6400   48.8586  -17.4253 H   0  0  0  0  0  0  0  0  0  0  0  0
  -10.1659   47.6467  -14.6461 H   0  0  0  0  0  0  0  0  0  0  0  0
  7  1  1  0
  2  3  2  0
  2 16  1  0
  2 27  1  0
  3  4  1  0
  4  5  2  0
  5 14  1  0
  6  7  1  0
  6  8  1  0
  6 22  2  0
  7 21  1  0
  8 20  2  0
  9 17  2  0
  9 23  1  0
 10 23  2  0
 10 24  1  0
 10 25  1  0
 11 12  1  0
 11 15  2  0
 11 24  1  0
 12 18  1  0
 12 19  1  0
 13 16  1  0
 13 20  1  0
 13 22  1  0
 14 16  2  0
 14 26  1  0
 17 20  1  0
 17 25  1  0
  3 28  1  0
  4 29  1  0
  5 30  1  0
  7 31  1  1
  8 32  1  0
  9 33  1  0
 12 34  1  6
 18 35  1  0
 18 36  1  0
 18 37  1  0
 19 38  1  0
 19 39  1  0
 19 40  1  0
 24 41  1  0
M  END
>  <filename_input>  (7) 
8AAU_LH0_docked.sdf

>  <pdb_id>  (7) 
8AAU_LH0

>  <pose_rank>  (7) 
6

>  <num_atoms_heavy>  (7) 
27

>  <num_torsions>  (7) 
4

>  <pose>  (7) 
[-12.976734204448196, 40.33800585527527, -16.61059046815701, 1.7809445428516644, 2.5501253071519083, 1.1333538600279913, -0.12756901906001966, -3.3310556868263315, 3.1492557094496805, -0.3821416338238878]

>  <energy>  (7) 
-484.44613229768754

>  <inter_energy>  (7) 
-519.0676595925024

>  <intra_energy>  (7) 
27.34544117080302

>  <rmsd>  (7) 
4.58329

>  <sdf_rank>  (7) 
0

$$$$

     RDKit          3D

 41 43  0  0  0  0  0  0  0  0999 V2000
  -15.5594   36.9591  -18.8459 F   0  0  0  0  0  0  0  0  0  0  0  0
  -16.7062   40.4738  -14.6835 C   0  0  0  0  0  0  0  0  0  0  0  0
  -17.4711   41.1240  -13.7289 C   0  0  0  0  0  0  0  0  0  0  0  0
  -17.5091   42.5067  -13.7177 C   0  0  0  0  0  0  0  0  0  0  0  0
  -16.7928   43.2333  -14.6535 C   0  0  0  0  0  0  0  0  0  0  0  0
  -14.8952   39.1536  -18.2726 C   0  0  0  0  0  0  0  0  0  0  0  0
  -15.3024   38.1403  -19.3786 C   0  0  2  0  0  0  0  0  0  0  0  0
  -13.6097   39.4930  -17.8028 C   0  0  0  0  0  0  0  0  0  0  0  0
  -12.4066   40.5762  -14.6370 C   0  0  0  0  0  0  0  0  0  0  0  0
  -11.2808   42.4535  -14.7143 C   0  0  0  0  0  0  0  0  0  0  0  0
  -10.1798   44.6023  -14.9554 C   0  0  0  0  0  0  0  0  0  0  0  0
   -9.1956   45.5378  -14.2898 C   0  0  2  0  0  0  0  0  0  0  0  0
  -15.1829   40.4797  -16.6094 N   0  0  0  0  0  0  0  0  0  0  0  0
  -16.0375   42.5649  -15.6004 C   0  0  0  0  0  0  0  0  0  0  0  0
  -10.6720   44.8522  -16.0536 O   0  0  0  0  0  0  0  0  0  0  0  0
  -15.9735   41.1762  -15.6259 C   0  0  0  0  0  0  0  0  0  0  0  0
  -12.8435   40.9796  -15.8664 C   0  0  0  0  0  0  0  0  0  0  0  0
   -8.8841   46.6932  -15.2269 C   0  0  0  0  0  0  0  0  0  0  0  0
   -7.9358   44.7590  -13.9518 C   0  0  0  0  0  0  0  0  0  0  0  0
  -13.8305   40.3356  -16.7126 C   0  0  0  0  0  0  0  0  0  0  0  0
  -16.4133   38.5458  -19.9893 F   0  0  0  0  0  0  0  0  0  0  0  0
  -15.8646   39.7595  -17.5772 N   0  0  0  0  0  0  0  0  0  0  0  0
  -11.5122   41.3969  -13.9860 N   0  0  0  0  0  0  0  0  0  0  0  0
  -10.4446   43.4594  -14.2662 N   0  0  0  0  0  0  0  0  0  0  0  0
  -12.1087   42.5119  -16.2293 S   0  0  0  0  0  0  0  0  0  0  0  0
  -15.2333   43.5005  -16.8085 Cl  0  0  0  0  0  0  0  0  0  0  0  0
  -16.7057   38.7518  -14.7316 Cl  0  0  0  0  0  0  0  0  0  0  0  0
  -18.0425   40.5465  -12.9872 H   0  0  0  0  0  0  0  0  0  0  0  0
  -18.1114   43.0315  -12.9616 H   0  0  0  0  0  0  0  0  0  0  0  0
  -16.8239   44.3328  -14.6441 H   0  0  0  0  0  0  0  0  0  0  0  0
  -14.4679   38.0725  -20.0921 H   0  0  0  0  0  0  0  0  0  0  0  0
  -12.6414   39.1644  -18.2083 H   0  0  0  0  0  0  0  0  0  0  0  0
  -12.7544   39.6354  -14.1855 H   0  0  0  0  0  0  0  0  0  0  0  0
   -9.6214   45.9500  -13.3631 H   0  0  0  0  0  0  0  0  0  0  0  0
   -8.6426   47.5893  -14.6365 H   0  0  0  0  0  0  0  0  0  0  0  0
   -8.0250   46.4294  -15.8612 H   0  0  0  0  0  0  0  0  0  0  0  0
   -9.7594   46.8969  -15.8612 H   0  0  0  0  0  0  0  0  0  0  0  0
   -7.8281   44.6924  -12.8591 H   0  0  0  0  0  0  0  0  0  0  0  0
   -8.0059   43.7464  -14.3757 H   0  0  0  0  0  0  0  0  0  0  0  0
   -7.0613   45.2743  -14.3757 H   0  0  0  0  0  0  0  0  0  0  0  0
   -9.9918   43.3352  -13.3495 H   0  0  0  0  0  0  0  0  0  0  0  0
  7  1  1  0
  2  3  2  0
  2 16  1  0
  2 27  1  0
  3  4  1  0
  4  5  2  0
  5 14  1  0
  6  7  1  0
  6  8  1  0
  6 22  2  0
  7 21  1  0
  8 20  2  0
  9 17  2  0
  9 23  1  0
 10 23  2  0
 10 24  1  0
 10 25  1  0
 11 12  1  0
 11 15  2  0
 11 24  1  0
 12 18  1  0
 12 19  1  0
 13 16  1  0
 13 20  1  0
 13 22  1  0
 14 16  2  0
 14 26  1  0
 17 20  1  0
 17 25  1  0
  3 28  1  0
  4 29  1  0
  5 30  1  0
  7 31  1  6
  8 32  1  0
  9 33  1  0
 12 34  1  1
 18 35  1  0
 18 36  1  0
 18 37  1  0
 19 38  1  0
 19 39  1  0
 19 40  1  0
 24 41  1  0
M  END
>  <filename_input>  (8) 
8AAU_LH0_docked.sdf

>  <pdb_id>  (8) 
8AAU_LH0

>  <pose_rank>  (8) 
7

>  <num_atoms_heavy>  (8) 
27

>  <num_torsions>  (8) 
4

>  <pose>  (8) 
[-14.895175680083742, 39.15356813110711, -18.27256749861553, -2.096186189192541, -1.6945807056779518, -1.62996657123127, -0.24468466487150628, -1.9683332431717588, -0.7962779192639969, 2.7323460105752573]

>  <energy>  (8) 
-473.38386040652256

>  <inter_energy>  (8) 
-464.9757479521952

>  <intra_energy>  (8) 
16.775386992192832

>  <rmsd>  (8) 
4.61524

>  <sdf_rank>  (8) 
0

$$$$

     RDKit          3D

 41 43  0  0  0  0  0  0  0  0999 V2000
  -10.0369   46.9120  -13.0590 F   0  0  0  0  0  0  0  0  0  0  0  0
  -10.9214   41.8017  -15.7202 C   0  0  0  0  0  0  0  0  0  0  0  0
  -10.7732   40.6095  -16.4098 C   0  0  0  0  0  0  0  0  0  0  0  0
  -11.8086   40.1541  -17.2061 C   0  0  0  0  0  0  0  0  0  0  0  0
  -12.9796   40.8844  -17.3156 C   0  0  0  0  0  0  0  0  0  0  0  0
  -11.5623   45.7173  -14.4123 C   0  0  0  0  0  0  0  0  0  0  0  0
  -10.5913   46.9211  -14.2581 C   0  0  2  0  0  0  0  0  0  0  0  0
  -12.7457   45.4287  -13.7018 C   0  0  0  0  0  0  0  0  0  0  0  0
  -14.6800   43.0716  -12.4618 C   0  0  0  0  0  0  0  0  0  0  0  0
  -16.2363   41.9365  -13.5044 C   0  0  0  0  0  0  0  0  0  0  0  0
  -17.8284   40.6845  -14.8406 C   0  0  0  0  0  0  0  0  0  0  0  0
  -19.0500   39.7978  -14.7496 C   0  0  2  0  0  0  0  0  0  0  0  0
  -12.2188   43.7851  -15.0779 N   0  0  0  0  0  0  0  0  0  0  0  0
  -13.1064   42.0742  -16.6212 C   0  0  0  0  0  0  0  0  0  0  0  0
  -17.3578   41.0322  -15.9216 O   0  0  0  0  0  0  0  0  0  0  0  0
  -12.0851   42.5479  -15.8053 C   0  0  0  0  0  0  0  0  0  0  0  0
  -14.2946   43.3924  -13.7321 C   0  0  0  0  0  0  0  0  0  0  0  0
  -19.3536   39.5047  -13.2894 C   0  0  0  0  0  0  0  0  0  0  0  0
  -18.7782   38.5142  -15.5152 C   0  0  0  0  0  0  0  0  0  0  0  0
  -13.1342   44.1620  -14.1396 C   0  0  0  0  0  0  0  0  0  0  0  0
   -9.6048   46.8348  -15.1474 F   0  0  0  0  0  0  0  0  0  0  0  0
  -11.2365   44.7434  -15.2700 N   0  0  0  0  0  0  0  0  0  0  0  0
  -15.7853   42.2610  -12.3247 N   0  0  0  0  0  0  0  0  0  0  0  0
  -17.3212   41.0909  -13.6453 N   0  0  0  0  0  0  0  0  0  0  0  0
  -15.3712   42.6017  -14.8436 S   0  0  0  0  0  0  0  0  0  0  0  0
  -14.5423   43.0043  -16.8554 Cl  0  0  0  0  0  0  0  0  0  0  0  0
   -9.6096   42.3957  -14.7748 Cl  0  0  0  0  0  0  0  0  0  0  0  0
   -9.8416   40.0307  -16.3251 H   0  0  0  0  0  0  0  0  0  0  0  0
  -11.7010   39.2069  -17.7550 H   0  0  0  0  0  0  0  0  0  0  0  0
  -13.8023   40.5218  -17.9494 H   0  0  0  0  0  0  0  0  0  0  0  0
  -11.1743   47.8413  -14.4106 H   0  0  0  0  0  0  0  0  0  0  0  0
  -13.2532   46.0649  -12.9618 H   0  0  0  0  0  0  0  0  0  0  0  0
  -14.1309   43.4450  -11.5848 H   0  0  0  0  0  0  0  0  0  0  0  0
  -19.9244   40.2993  -15.1900 H   0  0  0  0  0  0  0  0  0  0  0  0
  -18.7101   40.1261  -12.6492 H   0  0  0  0  0  0  0  0  0  0  0  0
  -20.4090   39.7340  -13.0811 H   0  0  0  0  0  0  0  0  0  0  0  0
  -19.1613   38.4418  -13.0811 H   0  0  0  0  0  0  0  0  0  0  0  0
  -18.6042   37.6931  -14.8042 H   0  0  0  0  0  0  0  0  0  0  0  0
  -19.6453   38.2740  -16.1479 H   0  0  0  0  0  0  0  0  0  0  0  0
  -17.8880   38.6462  -16.1479 H   0  0  0  0  0  0  0  0  0  0  0  0
  -17.7758   40.7455  -12.7880 H   0  0  0  0  0  0  0  0  0  0  0  0
  7  1  1  0
  2  3  2  0
  2 16  1  0
  2 27  1  0
  3  4  1  0
  4  5  2  0
  5 14  1  0
  6  7  1  0
  6  8  1  0
  6 22  2  0
  7 21  1  0
  8 20  2  0
  9 17  2  0
  9 23  1  0
 10 23  2  0
 10 24  1  0
 10 25  1  0
 11 12  1  0
 11 15  2  0
 11 24  1  0
 12 18  1  0
 12 19  1  0
 13 16  1  0
 13 20  1  0
 13 22  1  0
 14 16  2  0
 14 26  1  0
 17 20  1  0
 17 25  1  0
  3 28  1  0
  4 29  1  0
  5 30  1  0
  7 31  1  6
  8 32  1  0
  9 33  1  0
 12 34  1  6
 18 35  1  0
 18 36  1  0
 18 37  1  0
 19 38  1  0
 19 39  1  0
 19 40  1  0
 24 41  1  0
M  END
>  <filename_input>  (9) 
8AAU_LH0_docked.sdf

>  <pdb_id>  (9) 
8AAU_LH0

>  <pose_rank>  (9) 
8

>  <num_atoms_heavy>  (9) 
27

>  <num_torsions>  (9) 
4

>  <pose>  (9) 
[-11.562334604983754, 45.71733446697252, -14.412287099422537, 1.3852925934779443, -1.477507962254444, -1.7557298624331081, -6.775764894743247, 5.121440632876454, 2.3812340467930944, -4.069984607687185]

>  <energy>  (9) 
-465.55988965196923

>  <inter_energy>  (9) 
-616.0452566673399

>  <intra_energy>  (9) 
144.9895700872294

>  <rmsd>  (9) 
6.91552

>  <sdf_rank>  (9) 
0

$$$$

     RDKit          3D

 41 43  0  0  0  0  0  0  0  0999 V2000
  -19.8854   40.6023  -13.3722 F   0  0  0  0  0  0  0  0  0  0  0  0
  -14.3083   41.9873  -16.2897 C   0  0  0  0  0  0  0  0  0  0  0  0
  -13.1194   41.6623  -16.9220 C   0  0  0  0  0  0  0  0  0  0  0  0
  -12.2000   40.8629  -16.2669 C   0  0  0  0  0  0  0  0  0  0  0  0
  -12.4670   40.3895  -14.9936 C   0  0  0  0  0  0  0  0  0  0  0  0
  -17.9645   41.7799  -14.0856 C   0  0  0  0  0  0  0  0  0  0  0  0
  -19.4242   41.3303  -14.3734 C   0  0  2  0  0  0  0  0  0  0  0  0
  -17.4983   42.8201  -13.2555 C   0  0  0  0  0  0  0  0  0  0  0  0
  -15.3140   44.5413  -11.7565 C   0  0  0  0  0  0  0  0  0  0  0  0
  -13.3111   45.2535  -12.2842 C   0  0  0  0  0  0  0  0  0  0  0  0
  -11.1318   45.9680  -13.0768 C   0  0  0  0  0  0  0  0  0  0  0  0
   -9.9542   46.8551  -12.7403 C   0  0  2  0  0  0  0  0  0  0  0  0
  -15.8399   41.8857  -14.3730 N   0  0  0  0  0  0  0  0  0  0  0  0
  -13.6617   40.7229  -14.3808 C   0  0  0  0  0  0  0  0  0  0  0  0
  -11.1332   45.2384  -14.0661 O   0  0  0  0  0  0  0  0  0  0  0  0
  -14.5972   41.5341  -15.0132 C   0  0  0  0  0  0  0  0  0  0  0  0
  -15.1537   43.7698  -12.8719 C   0  0  0  0  0  0  0  0  0  0  0  0
   -9.4275   47.4992  -14.0123 C   0  0  0  0  0  0  0  0  0  0  0  0
   -8.8813   46.0091  -12.0764 C   0  0  0  0  0  0  0  0  0  0  0  0
  -16.1224   42.8774  -13.4803 C   0  0  0  0  0  0  0  0  0  0  0  0
  -20.2198   42.3913  -14.4866 F   0  0  0  0  0  0  0  0  0  0  0  0
  -16.9716   41.1837  -14.7558 N   0  0  0  0  0  0  0  0  0  0  0  0
  -14.2711   45.3718  -11.4098 N   0  0  0  0  0  0  0  0  0  0  0  0
  -12.1606   46.0145  -12.1877 N   0  0  0  0  0  0  0  0  0  0  0  0
  -13.5981   44.1250  -13.5603 S   0  0  0  0  0  0  0  0  0  0  0  0
  -14.0011   40.0382  -12.8324 Cl  0  0  0  0  0  0  0  0  0  0  0  0
  -15.4763   42.9351  -17.1293 Cl  0  0  0  0  0  0  0  0  0  0  0  0
  -12.9085   42.0361  -17.9348 H   0  0  0  0  0  0  0  0  0  0  0  0
  -11.2519   40.6021  -16.7600 H   0  0  0  0  0  0  0  0  0  0  0  0
  -11.7355   39.7535  -14.4736 H   0  0  0  0  0  0  0  0  0  0  0  0
  -19.4157   40.7481  -15.3067 H   0  0  0  0  0  0  0  0  0  0  0  0
  -18.0916   43.4506  -12.5768 H   0  0  0  0  0  0  0  0  0  0  0  0
  -16.2373   44.5013  -11.1599 H   0  0  0  0  0  0  0  0  0  0  0  0
  -10.2588   47.6547  -12.0490 H   0  0  0  0  0  0  0  0  0  0  0  0
   -8.7510   48.3264  -13.7514 H   0  0  0  0  0  0  0  0  0  0  0  0
   -8.8799   46.7500  -14.6030 H   0  0  0  0  0  0  0  0  0  0  0  0
  -10.2704   47.8872  -14.6030 H   0  0  0  0  0  0  0  0  0  0  0  0
   -8.9783   46.0856  -10.9834 H   0  0  0  0  0  0  0  0  0  0  0  0
   -9.0005   44.9593  -12.3826 H   0  0  0  0  0  0  0  0  0  0  0  0
   -7.8883   46.3699  -12.3826 H   0  0  0  0  0  0  0  0  0  0  0  0
  -12.0769   46.6597  -11.3892 H   0  0  0  0  0  0  0  0  0  0  0  0
  7  1  1  0
  2  3  2  0
  2 16  1  0
  2 27  1  0
  3  4  1  0
  4  5  2  0
  5 14  1  0
  6  7  1  0
  6  8  1  0
  6 22  2  0
  7 21  1  0
  8 20  2  0
  9 17  2  0
  9 23  1  0
 10 23  2  0
 10 24  1  0
 10 25  1  0
 11 12  1  0
 11 15  2  0
 11 24  1  0
 12 18  1  0
 12 19  1  0
 13 16  1  0
 13 20  1  0
 13 22  1  0
 14 16  2  0
 14 26  1  0
 17 20  1  0
 17 25  1  0
  3 28  1  0
  4 29  1  0
  5 30  1  0
  7 31  1  6
  8 32  1  0
  9 33  1  0
 12 34  1  1
 18 35  1  0
 18 36  1  0
 18 37  1  0
 19 38  1  0
 19 39  1  0
 19 40  1  0
 24 41  1  0
M  END
>  <filename_input>  (10) 
8AAU_LH0_docked.sdf

>  <pdb_id>  (10) 
8AAU_LH0

>  <pose_rank>  (10) 
9

>  <num_atoms_heavy>  (10) 
27

>  <num_torsions>  (10) 
4

>  <pose>  (10) 
[-17.96445618317366, 41.77990727271303, -14.085586259146366, -6.225150413709737, 6.382986086603681, -8.91289426607704, -0.06696693274464048, 0.02731223014655594, 0.005458565716136836, -0.2633088140108343]

>  <energy>  (10) 
-1171.6081636739027

>  <inter_energy>  (10) 
-1187.553152215261

>  <intra_energy>  (10) 
29.39488746110966

>  <rmsd>  (10) 
0.509598

>  <sdf_rank>  (10) 
0

$$$$

     RDKit          3D

 41 43  0  0  0  0  0  0  0  0999 V2000
   -9.1884   45.4255  -12.4346 F   0  0  0  0  0  0  0  0  0  0  0  0
  -14.4730   41.3943  -13.1920 C   0  0  0  0  0  0  0  0  0  0  0  0
  -15.8134   41.0514  -13.2619 C   0  0  0  0  0  0  0  0  0  0  0  0
  -16.6851   41.8643  -13.9638 C   0  0  0  0  0  0  0  0  0  0  0  0
  -16.2219   43.0071  -14.5932 C   0  0  0  0  0  0  0  0  0  0  0  0
  -10.8775   43.8195  -12.8267 C   0  0  0  0  0  0  0  0  0  0  0  0
  -10.1026   44.7044  -11.8106 C   0  0  2  0  0  0  0  0  0  0  0  0
  -10.4450   43.2889  -14.0595 C   0  0  0  0  0  0  0  0  0  0  0  0
  -11.7294   42.5485  -17.1416 C   0  0  0  0  0  0  0  0  0  0  0  0
  -12.0434   40.4672  -17.7475 C   0  0  0  0  0  0  0  0  0  0  0  0
  -12.4574   38.1212  -18.2082 C   0  0  0  0  0  0  0  0  0  0  0  0
  -12.6568   37.1262  -19.3295 C   0  0  2  0  0  0  0  0  0  0  0  0
  -12.5863   42.8750  -13.7186 N   0  0  0  0  0  0  0  0  0  0  0  0
  -14.8790   43.3302  -14.5140 C   0  0  0  0  0  0  0  0  0  0  0  0
  -12.4249   37.7732  -17.0298 O   0  0  0  0  0  0  0  0  0  0  0  0
  -13.9846   42.5360  -13.8053 C   0  0  0  0  0  0  0  0  0  0  0  0
  -11.6895   42.0048  -15.8895 C   0  0  0  0  0  0  0  0  0  0  0  0
  -14.0466   37.3017  -19.9192 C   0  0  0  0  0  0  0  0  0  0  0  0
  -12.4766   35.7239  -18.7739 C   0  0  0  0  0  0  0  0  0  0  0  0
  -11.5793   42.7025  -14.6222 C   0  0  0  0  0  0  0  0  0  0  0  0
  -10.9331   45.5553  -11.2127 F   0  0  0  0  0  0  0  0  0  0  0  0
  -12.1684   43.5600  -12.5889 N   0  0  0  0  0  0  0  0  0  0  0  0
  -11.9146   41.6841  -18.1980 N   0  0  0  0  0  0  0  0  0  0  0  0
  -12.2823   39.4103  -18.6065 N   0  0  0  0  0  0  0  0  0  0  0  0
  -11.9301   40.2898  -16.0329 S   0  0  0  0  0  0  0  0  0  0  0  0
  -14.3210   44.7104  -15.3889 Cl  0  0  0  0  0  0  0  0  0  0  0  0
  -13.3793   40.3507  -12.3660 Cl  0  0  0  0  0  0  0  0  0  0  0  0
  -16.1808   40.1418  -12.7642 H   0  0  0  0  0  0  0  0  0  0  0  0
  -17.7516   41.6015  -14.0222 H   0  0  0  0  0  0  0  0  0  0  0  0
  -16.9157   43.6527  -15.1516 H   0  0  0  0  0  0  0  0  0  0  0  0
   -9.6344   44.0344  -11.0744 H   0  0  0  0  0  0  0  0  0  0  0  0
   -9.4318   43.3287  -14.4858 H   0  0  0  0  0  0  0  0  0  0  0  0
  -11.6183   43.6314  -17.3000 H   0  0  0  0  0  0  0  0  0  0  0  0
  -11.9192   37.2924  -20.1285 H   0  0  0  0  0  0  0  0  0  0  0  0
  -14.7811   37.3945  -19.1056 H   0  0  0  0  0  0  0  0  0  0  0  0
  -14.0697   38.2099  -20.5394 H   0  0  0  0  0  0  0  0  0  0  0  0
  -14.2948   36.4278  -20.5394 H   0  0  0  0  0  0  0  0  0  0  0  0
  -12.4815   35.7617  -17.6745 H   0  0  0  0  0  0  0  0  0  0  0  0
  -13.2998   35.0828  -19.1223 H   0  0  0  0  0  0  0  0  0  0  0  0
  -11.5182   35.3117  -19.1223 H   0  0  0  0  0  0  0  0  0  0  0  0
  -12.3309   39.6124  -19.6153 H   0  0  0  0  0  0  0  0  0  0  0  0
  7  1  1  0
  2  3  2  0
  2 16  1  0
  2 27  1  0
  3  4  1  0
  4  5  2  0
  5 14  1  0
  6  7  1  0
  6  8  1  0
  6 22  2  0
  7 21  1  0
  8 20  2  0
  9 17  2  0
  9 23  1  0
 10 23  2  0
 10 24  1  0
 10 25  1  0
 11 12  1  0
 11 15  2  0
 11 24  1  0
 12 18  1  0
 12 19  1  0
 13 16  1  0
 13 20  1  0
 13 22  1  0
 14 16  2  0
 14 26  1  0
 17 20  1  0
 17 25  1  0
  3 28  1  0
  4 29  1  0
  5 30  1  0
  7 31  1  1
  8 32  1  0
  9 33  1  0
 12 34  1  6
 18 35  1  0
 18 36  1  0
 18 37  1  0
 19 38  1  0
 19 39  1  0
 19 40  1  0
 24 41  1  0
M  END
>  <filename_input>  (11) 
8AAU_LH0_docked.sdf

>  <pdb_id>  (11) 
8AAU_LH0

>  <pose_rank>  (11) 
10

>  <num_atoms_heavy>  (11) 
27

>  <num_torsions>  (11) 
4

>  <pose>  (11) 
[-10.877496013477204, 43.81953200617488, -12.826662838709096, 0.4970552251151729, -3.0325038769893466, 2.273198879903589, -2.9037445895125877, -1.5670708316778406, 1.1686282793350986, 1.6020803953351876]

>  <energy>  (11) 
-642.4065620944821

>  <inter_energy>  (11) 
-588.8035288787029

>  <intra_energy>  (11) 
2.890222909593625

>  <rmsd>  (11) 
7.53343

>  <sdf_rank>  (11) 
0

$$$$

     RDKit          3D

 41 43  0  0  0  0  0  0  0  0999 V2000
   -7.4411   46.6579  -12.1380 F   0  0  0  0  0  0  0  0  0  0  0  0
  -10.5687   42.0939  -15.4609 C   0  0  0  0  0  0  0  0  0  0  0  0
  -10.7863   41.0192  -16.3074 C   0  0  0  0  0  0  0  0  0  0  0  0
  -10.5543   41.1667  -17.6631 C   0  0  0  0  0  0  0  0  0  0  0  0
  -10.1057   42.3752  -18.1682 C   0  0  0  0  0  0  0  0  0  0  0  0
   -8.6960   45.8215  -13.9578 C   0  0  0  0  0  0  0  0  0  0  0  0
   -7.3830   46.4766  -13.4453 C   0  0  2  0  0  0  0  0  0  0  0  0
  -10.0194   46.0037  -13.5064 C   0  0  0  0  0  0  0  0  0  0  0  0
  -13.2043   45.5495  -14.7345 C   0  0  0  0  0  0  0  0  0  0  0  0
  -14.4976   44.1908  -13.6037 C   0  0  0  0  0  0  0  0  0  0  0  0
  -15.7550   42.6475  -12.2164 C   0  0  0  0  0  0  0  0  0  0  0  0
  -17.1575   42.1971  -11.8740 C   0  0  2  0  0  0  0  0  0  0  0  0
   -9.9097   44.4220  -15.0422 N   0  0  0  0  0  0  0  0  0  0  0  0
   -9.8915   43.4353  -17.3055 C   0  0  0  0  0  0  0  0  0  0  0  0
  -14.7632   42.1086  -11.7296 O   0  0  0  0  0  0  0  0  0  0  0  0
  -10.1281   43.3162  -15.9406 C   0  0  0  0  0  0  0  0  0  0  0  0
  -12.2073   44.8350  -14.1340 C   0  0  0  0  0  0  0  0  0  0  0  0
  -17.3415   40.7501  -12.3009 C   0  0  0  0  0  0  0  0  0  0  0  0
  -18.1472   43.1028  -12.5866 C   0  0  0  0  0  0  0  0  0  0  0  0
  -10.7775   45.0685  -14.2120 C   0  0  0  0  0  0  0  0  0  0  0  0
   -6.3452   45.6786  -13.6853 F   0  0  0  0  0  0  0  0  0  0  0  0
   -8.6097   44.8822  -14.9068 N   0  0  0  0  0  0  0  0  0  0  0  0
  -14.5012   45.1820  -14.4509 N   0  0  0  0  0  0  0  0  0  0  0  0
  -15.6800   43.6593  -13.1228 N   0  0  0  0  0  0  0  0  0  0  0  0
  -12.9378   43.6318  -13.1150 S   0  0  0  0  0  0  0  0  0  0  0  0
   -9.2429   44.8968  -17.9573 Cl  0  0  0  0  0  0  0  0  0  0  0  0
  -10.8031   41.8914  -13.7663 Cl  0  0  0  0  0  0  0  0  0  0  0  0
  -11.1399   40.0582  -15.9056 H   0  0  0  0  0  0  0  0  0  0  0  0
  -10.7272   40.3197  -18.3432 H   0  0  0  0  0  0  0  0  0  0  0  0
   -9.9211   42.4914  -19.2463 H   0  0  0  0  0  0  0  0  0  0  0  0
   -7.2644   47.4378  -13.9668 H   0  0  0  0  0  0  0  0  0  0  0  0
  -10.3772   46.7272  -12.7590 H   0  0  0  0  0  0  0  0  0  0  0  0
  -12.9810   46.3836  -15.4161 H   0  0  0  0  0  0  0  0  0  0  0  0
  -17.3294   42.2617  -10.7895 H   0  0  0  0  0  0  0  0  0  0  0  0
  -17.4227   40.1120  -11.4086 H   0  0  0  0  0  0  0  0  0  0  0  0
  -18.2585   40.6587  -12.9016 H   0  0  0  0  0  0  0  0  0  0  0  0
  -16.4766   40.4321  -12.9016 H   0  0  0  0  0  0  0  0  0  0  0  0
  -18.7450   43.6498  -11.8427 H   0  0  0  0  0  0  0  0  0  0  0  0
  -17.6004   43.8198  -13.2166 H   0  0  0  0  0  0  0  0  0  0  0  0
  -18.8130   42.4946  -13.2166 H   0  0  0  0  0  0  0  0  0  0  0  0
  -16.5632   44.0560  -13.4743 H   0  0  0  0  0  0  0  0  0  0  0  0
  7  1  1  0
  2  3  2  0
  2 16  1  0
  2 27  1  0
  3  4  1  0
  4  5  2  0
  5 14  1  0
  6  7  1  0
  6  8  1  0
  6 22  2  0
  7 21  1  0
  8 20  2  0
  9 17  2  0
  9 23  1  0
 10 23  2  0
 10 24  1  0
 10 25  1  0
 11 12  1  0
 11 15  2  0
 11 24  1  0
 12 18  1  0
 12 19  1  0
 13 16  1  0
 13 20  1  0
 13 22  1  0
 14 16  2  0
 14 26  1  0
 17 20  1  0
 17 25  1  0
  3 28  1  0
  4 29  1  0
  5 30  1  0
  7 31  1  6
  8 32  1  0
  9 33  1  0
 12 34  1  1
 18 35  1  0
 18 36  1  0
 18 37  1  0
 19 38  1  0
 19 39  1  0
 19 40  1  0
 24 41  1  0
M  END
>  <filename_input>  (12) 
8AAU_LH0_docked.sdf

>  <pdb_id>  (12) 
8AAU_LH0

>  <pose_rank>  (12) 
11

>  <num_atoms_heavy>  (12) 
27

>  <num_torsions>  (12) 
4

>  <pose>  (12) 
[-8.69599942356256, 45.82151659201983, -13.957752443717014, 1.4170473426305492, -1.907923585515613, -2.056069754929474, 6.853763574081713, 1.155401179665917, -1.794962054095512, 1.7178306245941921]

>  <energy>  (12) 
-493.33630227532353

>  <inter_energy>  (12) 
-550.7461125552578

>  <intra_energy>  (12) 
52.81304889212197

>  <rmsd>  (12) 
7.09622

>  <sdf_rank>  (12) 
0

$$$$

     RDKit          3D

 41 43  0  0  0  0  0  0  0  0999 V2000
  -14.9269   44.6970  -10.6121 F   0  0  0  0  0  0  0  0  0  0  0  0
  -17.1486   41.1037  -14.5300 C   0  0  0  0  0  0  0  0  0  0  0  0
  -18.0148   40.3414  -15.2965 C   0  0  0  0  0  0  0  0  0  0  0  0
  -17.6658   40.0200  -16.5958 C   0  0  0  0  0  0  0  0  0  0  0  0
  -16.4612   40.4526  -17.1235 C   0  0  0  0  0  0  0  0  0  0  0  0
  -14.5952   43.9037  -12.8136 C   0  0  0  0  0  0  0  0  0  0  0  0
  -14.8787   45.1042  -11.8679 C   0  0  2  0  0  0  0  0  0  0  0  0
  -13.3611   43.4132  -13.2876 C   0  0  0  0  0  0  0  0  0  0  0  0
  -12.4768   40.2803  -14.7811 C   0  0  0  0  0  0  0  0  0  0  0  0
  -11.1114   40.6169  -16.4604 C   0  0  0  0  0  0  0  0  0  0  0  0
   -9.6144   41.2091  -18.2759 C   0  0  0  0  0  0  0  0  0  0  0  0
   -8.5814   40.6433  -19.2244 C   0  0  2  0  0  0  0  0  0  0  0  0
  -15.0553   42.3498  -14.2211 N   0  0  0  0  0  0  0  0  0  0  0  0
  -15.6087   41.2102  -16.3405 C   0  0  0  0  0  0  0  0  0  0  0  0
   -9.9788   42.3814  -18.3371 O   0  0  0  0  0  0  0  0  0  0  0  0
  -15.9412   41.5564  -15.0356 C   0  0  0  0  0  0  0  0  0  0  0  0
  -12.7963   41.5911  -14.9928 C   0  0  0  0  0  0  0  0  0  0  0  0
   -7.3366   41.5149  -19.1937 C   0  0  0  0  0  0  0  0  0  0  0  0
   -9.1766   40.5968  -20.6213 C   0  0  0  0  0  0  0  0  0  0  0  0
  -13.6934   42.4229  -14.2129 C   0  0  0  0  0  0  0  0  0  0  0  0
  -13.8980   45.9999  -11.9529 F   0  0  0  0  0  0  0  0  0  0  0  0
  -15.6366   43.2569  -13.3497 N   0  0  0  0  0  0  0  0  0  0  0  0
  -11.5359   39.7187  -15.6158 N   0  0  0  0  0  0  0  0  0  0  0  0
  -10.1279   40.3179  -17.3852 N   0  0  0  0  0  0  0  0  0  0  0  0
  -11.8315   42.1802  -16.3126 S   0  0  0  0  0  0  0  0  0  0  0  0
  -14.0751   41.6521  -16.9996 Cl  0  0  0  0  0  0  0  0  0  0  0  0
  -17.5589   41.4545  -12.8941 Cl  0  0  0  0  0  0  0  0  0  0  0  0
  -18.9706   39.9953  -14.8762 H   0  0  0  0  0  0  0  0  0  0  0  0
  -18.3487   39.4176  -17.2129 H   0  0  0  0  0  0  0  0  0  0  0  0
  -16.1842   40.1961  -18.1568 H   0  0  0  0  0  0  0  0  0  0  0  0
  -15.8388   45.5475  -12.1707 H   0  0  0  0  0  0  0  0  0  0  0  0
  -12.3535   43.7406  -12.9918 H   0  0  0  0  0  0  0  0  0  0  0  0
  -12.9510   39.6974  -13.9778 H   0  0  0  0  0  0  0  0  0  0  0  0
   -8.2971   39.6245  -18.9221 H   0  0  0  0  0  0  0  0  0  0  0  0
   -7.0534   41.7131  -18.1494 H   0  0  0  0  0  0  0  0  0  0  0  0
   -6.5126   40.9954  -19.7047 H   0  0  0  0  0  0  0  0  0  0  0  0
   -7.5429   42.4669  -19.7047 H   0  0  0  0  0  0  0  0  0  0  0  0
  -10.2710   40.5115  -20.5508 H   0  0  0  0  0  0  0  0  0  0  0  0
   -8.9147   41.5181  -21.1622 H   0  0  0  0  0  0  0  0  0  0  0  0
   -8.7750   39.7273  -21.1622 H   0  0  0  0  0  0  0  0  0  0  0  0
   -9.7594   39.3562  -17.4009 H   0  0  0  0  0  0  0  0  0  0  0  0
  7  1  1  0
  2  3  2  0
  2 16  1  0
  2 27  1  0
  3  4  1  0
  4  5  2  0
  5 14  1  0
  6  7  1  0
  6  8  1  0
  6 22  2  0
  7 21  1  0
  8 20  2  0
  9 17  2  0
  9 23  1  0
 10 23  2  0
 10 24  1  0
 10 25  1  0
 11 12  1  0
 11 15  2  0
 11 24  1  0
 12 18  1  0
 12 19  1  0
 13 16  1  0
 13 20  1  0
 13 22  1  0
 14 16  2  0
 14 26  1  0
 17 20  1  0
 17 25  1  0
  3 28  1  0
  4 29  1  0
  5 30  1  0
  7 31  1  6
  8 32  1  0
  9 33  1  0
 12 34  1  1
 18 35  1  0
 18 36  1  0
 18 37  1  0
 19 38  1  0
 19 39  1  0
 19 40  1  0
 24 41  1  0
M  END
>  <filename_input>  (13) 
8AAU_LH0_docked.sdf

>  <pdb_id>  (13) 
8AAU_LH0

>  <pose_rank>  (13) 
12

>  <num_atoms_heavy>  (13) 
27

>  <num_torsions>  (13) 
4

>  <pose>  (13) 
[-14.59522870689493, 43.90371346848736, -12.813552480083635, -0.1331339021584367, 1.1229979313777552, -1.366347275099157, -2.076283190430938, 1.5666477651996, 0.20637071924229536, -0.4966817212453658]

>  <energy>  (13) 
-377.73984411636934

>  <inter_energy>  (13) 
-567.7443633936681

>  <intra_energy>  (13) 
189.7163518919556

>  <rmsd>  (13) 
5.77466

>  <sdf_rank>  (13) 
0

$$$$

     RDKit          3D

 41 43  0  0  0  0  0  0  0  0999 V2000
  -14.7778   39.6220  -19.5688 F   0  0  0  0  0  0  0  0  0  0  0  0
  -13.6033   41.3975  -13.9031 C   0  0  0  0  0  0  0  0  0  0  0  0
  -14.2594   41.6849  -12.7174 C   0  0  0  0  0  0  0  0  0  0  0  0
  -15.3801   42.4953  -12.7424 C   0  0  0  0  0  0  0  0  0  0  0  0
  -15.8435   43.0109  -13.9407 C   0  0  0  0  0  0  0  0  0  0  0  0
  -13.1023   40.6173  -18.2317 C   0  0  0  0  0  0  0  0  0  0  0  0
  -13.4679   39.6629  -19.4027 C   0  0  2  0  0  0  0  0  0  0  0  0
  -11.8819   41.2693  -17.9597 C   0  0  0  0  0  0  0  0  0  0  0  0
   -9.7899   42.4335  -15.7564 C   0  0  0  0  0  0  0  0  0  0  0  0
   -9.9219   44.2337  -14.5157 C   0  0  0  0  0  0  0  0  0  0  0  0
  -10.2896   46.1932  -13.1326 C   0  0  0  0  0  0  0  0  0  0  0  0
   -9.5872   47.1934  -12.2420 C   0  0  2  0  0  0  0  0  0  0  0  0
  -13.3417   41.5964  -16.3366 N   0  0  0  0  0  0  0  0  0  0  0  0
  -15.1757   42.7094  -15.1142 C   0  0  0  0  0  0  0  0  0  0  0  0
  -11.4879   46.2833  -13.3910 O   0  0  0  0  0  0  0  0  0  0  0  0
  -14.0404   41.9067  -15.1146 C   0  0  0  0  0  0  0  0  0  0  0  0
  -11.1152   42.6840  -15.9704 C   0  0  0  0  0  0  0  0  0  0  0  0
   -8.7863   48.1588  -13.1003 C   0  0  0  0  0  0  0  0  0  0  0  0
   -8.6808   46.4398  -11.2837 C   0  0  0  0  0  0  0  0  0  0  0  0
  -12.0619   41.8762  -16.7161 C   0  0  0  0  0  0  0  0  0  0  0  0
  -12.9413   40.1071  -20.5414 F   0  0  0  0  0  0  0  0  0  0  0  0
  -14.0105   40.8215  -17.2706 N   0  0  0  0  0  0  0  0  0  0  0  0
   -9.1053   43.3131  -14.9470 N   0  0  0  0  0  0  0  0  0  0  0  0
   -9.4906   45.2198  -13.6475 N   0  0  0  0  0  0  0  0  0  0  0  0
  -11.5521   44.1064  -15.0728 S   0  0  0  0  0  0  0  0  0  0  0  0
  -15.8361   43.2925  -16.5993 Cl  0  0  0  0  0  0  0  0  0  0  0  0
  -12.2421   40.3420  -13.8773 Cl  0  0  0  0  0  0  0  0  0  0  0  0
  -13.8929   41.2727  -11.7656 H   0  0  0  0  0  0  0  0  0  0  0  0
  -15.9058   42.7313  -11.8054 H   0  0  0  0  0  0  0  0  0  0  0  0
  -16.7350   43.6550  -13.9597 H   0  0  0  0  0  0  0  0  0  0  0  0
  -13.0755   38.6656  -19.1547 H   0  0  0  0  0  0  0  0  0  0  0  0
  -10.9819   41.2942  -18.5916 H   0  0  0  0  0  0  0  0  0  0  0  0
   -9.2900   41.5657  -16.2113 H   0  0  0  0  0  0  0  0  0  0  0  0
  -10.3193   47.7736  -11.6612 H   0  0  0  0  0  0  0  0  0  0  0  0
   -8.2192   48.8424  -12.4515 H   0  0  0  0  0  0  0  0  0  0  0  0
   -8.0888   47.5929  -13.7353 H   0  0  0  0  0  0  0  0  0  0  0  0
   -9.4713   48.7397  -13.7353 H   0  0  0  0  0  0  0  0  0  0  0  0
   -8.9651   46.6762  -10.2477 H   0  0  0  0  0  0  0  0  0  0  0  0
   -8.7848   45.3582  -11.4547 H   0  0  0  0  0  0  0  0  0  0  0  0
   -7.6363   46.7394  -11.4547 H   0  0  0  0  0  0  0  0  0  0  0  0
   -8.4981   45.2171  -13.3722 H   0  0  0  0  0  0  0  0  0  0  0  0
  7  1  1  0
  2  3  2  0
  2 16  1  0
  2 27  1  0
  3  4  1  0
  4  5  2  0
  5 14  1  0
  6  7  1  0
  6  8  1  0
  6 22  2  0
  7 21  1  0
  8 20  2  0
  9 17  2  0
  9 23  1  0
 10 23  2  0
 10 24  1  0
 10 25  1  0
 11 12  1  0
 11 15  2  0
 11 24  1  0
 12 18  1  0
 12 19  1  0
 13 16  1  0
 13 20  1  0
 13 22  1  0
 14 16  2  0
 14 26  1  0
 17 20  1  0
 17 25  1  0
  3 28  1  0
  4 29  1  0
  5 30  1  0
  7 31  1  1
  8 32  1  0
  9 33  1  0
 12 34  1  1
 18 35  1  0
 18 36  1  0
 18 37  1  0
 19 38  1  0
 19 39  1  0
 19 40  1  0
 24 41  1  0
M  END
>  <filename_input>  (14) 
8AAU_LH0_docked.sdf

>  <pdb_id>  (14) 
8AAU_LH0

>  <pose_rank>  (14) 
13

>  <num_atoms_heavy>  (14) 
27

>  <num_torsions>  (14) 
4

>  <pose>  (14) 
[-13.10225732685189, 40.61731529369324, -18.231739491495254, -1.7846890462359672, -1.6575038897953325, -1.3500323732259034, -12.026368226054268, -7.305688810863258, 3.770720434152066, -1.6638215022838125]

>  <energy>  (14) 
-628.446426140636

>  <inter_energy>  (14) 
-634.1447569849056

>  <intra_energy>  (14) 
32.66090949262104

>  <rmsd>  (14) 
4.5532

>  <sdf_rank>  (14) 
0

$$$$

     RDKit          3D

 41 43  0  0  0  0  0  0  0  0999 V2000
  -11.1606   46.2616  -12.7802 F   0  0  0  0  0  0  0  0  0  0  0  0
  -15.4545   43.1056  -14.3797 C   0  0  0  0  0  0  0  0  0  0  0  0
  -16.7715   42.7353  -14.1619 C   0  0  0  0  0  0  0  0  0  0  0  0
  -17.0499   41.7145  -13.2709 C   0  0  0  0  0  0  0  0  0  0  0  0
  -16.0228   41.0720  -12.6008 C   0  0  0  0  0  0  0  0  0  0  0  0
  -11.2881   44.0613  -13.6334 C   0  0  0  0  0  0  0  0  0  0  0  0
  -10.4251   45.1856  -12.9955 C   0  0  2  0  0  0  0  0  0  0  0  0
  -11.0270   43.2743  -14.7739 C   0  0  0  0  0  0  0  0  0  0  0  0
  -11.6966   41.2797  -17.1195 C   0  0  0  0  0  0  0  0  0  0  0  0
  -13.3592   39.9385  -17.6036 C   0  0  0  0  0  0  0  0  0  0  0  0
  -15.3271   38.5754  -18.0004 C   0  0  0  0  0  0  0  0  0  0  0  0
  -15.9180   37.5508  -18.9426 C   0  0  2  0  0  0  0  0  0  0  0  0
  -13.0442   42.8742  -13.9718 N   0  0  0  0  0  0  0  0  0  0  0  0
  -14.7145   41.4589  -12.8301 C   0  0  0  0  0  0  0  0  0  0  0  0
  -15.9139   38.9356  -16.9821 O   0  0  0  0  0  0  0  0  0  0  0  0
  -14.4075   42.4741  -13.7291 C   0  0  0  0  0  0  0  0  0  0  0  0
  -12.4563   41.5555  -16.0187 C   0  0  0  0  0  0  0  0  0  0  0  0
  -16.6156   38.2630  -20.0899 C   0  0  0  0  0  0  0  0  0  0  0  0
  -16.8956   36.6837  -18.1680 C   0  0  0  0  0  0  0  0  0  0  0  0
  -12.1909   42.5325  -14.9795 C   0  0  0  0  0  0  0  0  0  0  0  0
   -9.9520   44.7909  -11.8159 F   0  0  0  0  0  0  0  0  0  0  0  0
  -12.4981   43.8179  -13.1166 N   0  0  0  0  0  0  0  0  0  0  0  0
  -12.1936   40.3561  -18.0125 N   0  0  0  0  0  0  0  0  0  0  0  0
  -14.0934   39.0327  -18.3469 N   0  0  0  0  0  0  0  0  0  0  0  0
  -13.9152   40.6163  -16.1150 S   0  0  0  0  0  0  0  0  0  0  0  0
  -13.4677   40.6999  -11.9077 Cl  0  0  0  0  0  0  0  0  0  0  0  0
  -15.1137   44.4150  -15.4460 Cl  0  0  0  0  0  0  0  0  0  0  0  0
  -17.5877   43.2479  -14.6921 H   0  0  0  0  0  0  0  0  0  0  0  0
  -18.0925   41.4118  -13.0938 H   0  0  0  0  0  0  0  0  0  0  0  0
  -16.2452   40.2606  -11.8921 H   0  0  0  0  0  0  0  0  0  0  0  0
   -9.6023   45.4091  -13.6905 H   0  0  0  0  0  0  0  0  0  0  0  0
  -10.1045   43.2502  -15.3727 H   0  0  0  0  0  0  0  0  0  0  0  0
  -10.7283   41.7743  -17.2862 H   0  0  0  0  0  0  0  0  0  0  0  0
  -15.1273   36.9118  -19.3627 H   0  0  0  0  0  0  0  0  0  0  0  0
  -17.3317   38.9940  -19.6865 H   0  0  0  0  0  0  0  0  0  0  0  0
  -15.8684   38.7837  -20.7068 H   0  0  0  0  0  0  0  0  0  0  0  0
  -17.1516   37.5266  -20.7068 H   0  0  0  0  0  0  0  0  0  0  0  0
  -16.7360   36.8253  -17.0889 H   0  0  0  0  0  0  0  0  0  0  0  0
  -17.9254   36.9709  -18.4271 H   0  0  0  0  0  0  0  0  0  0  0  0
  -16.7334   35.6270  -18.4271 H   0  0  0  0  0  0  0  0  0  0  0  0
  -13.6786   38.6807  -19.2215 H   0  0  0  0  0  0  0  0  0  0  0  0
  7  1  1  0
  2  3  2  0
  2 16  1  0
  2 27  1  0
  3  4  1  0
  4  5  2  0
  5 14  1  0
  6  7  1  0
  6  8  1  0
  6 22  2  0
  7 21  1  0
  8 20  2  0
  9 17  2  0
  9 23  1  0
 10 23  2  0
 10 24  1  0
 10 25  1  0
 11 12  1  0
 11 15  2  0
 11 24  1  0
 12 18  1  0
 12 19  1  0
 13 16  1  0
 13 20  1  0
 13 22  1  0
 14 16  2  0
 14 26  1  0
 17 20  1  0
 17 25  1  0
  3 28  1  0
  4 29  1  0
  5 30  1  0
  7 31  1  6
  8 32  1  0
  9 33  1  0
 12 34  1  6
 18 35  1  0
 18 36  1  0
 18 37  1  0
 19 38  1  0
 19 39  1  0
 19 40  1  0
 24 41  1  0
M  END
>  <filename_input>  (15) 
8AAU_LH0_docked.sdf

>  <pdb_id>  (15) 
8AAU_LH0

>  <pose_rank>  (15) 
14

>  <num_atoms_heavy>  (15) 
27

>  <num_torsions>  (15) 
4

>  <pose>  (15) 
[-11.288086492186281, 44.061278285358206, -13.633385349740752, -0.620184229885298, 1.8915379329476265, -1.6747329575671774, 0.19023125774902555, -0.40566400504251193, 0.9636373321207549, -2.900326903164389]

>  <energy>  (15) 
-608.0390191082345

>  <inter_energy>  (15) 
-621.7072991834643

>  <intra_energy>  (15) 
35.25203671046967

>  <rmsd>  (15) 
7.68908

>  <sdf_rank>  (15) 
0

$$$$

     RDKit          3D

 41 43  0  0  0  0  0  0  0  0999 V2000
   -8.1066   39.8327  -16.6640 F   0  0  0  0  0  0  0  0  0  0  0  0
  -10.6919   45.3317  -15.1703 C   0  0  0  0  0  0  0  0  0  0  0  0
  -10.4704   46.5849  -14.6230 C   0  0  0  0  0  0  0  0  0  0  0  0
   -9.8191   46.6876  -13.4070 C   0  0  0  0  0  0  0  0  0  0  0  0
   -9.3897   45.5498  -12.7455 C   0  0  0  0  0  0  0  0  0  0  0  0
  -10.0163   41.1819  -16.3203 C   0  0  0  0  0  0  0  0  0  0  0  0
   -9.1586   40.3252  -17.2931 C   0  0  2  0  0  0  0  0  0  0  0  0
  -11.3590   41.0086  -15.9256 C   0  0  0  0  0  0  0  0  0  0  0  0
  -13.1374   43.4128  -13.5527 C   0  0  0  0  0  0  0  0  0  0  0  0
  -15.1551   42.5606  -13.5480 C   0  0  0  0  0  0  0  0  0  0  0  0
  -17.3015   41.4321  -13.6347 C   0  0  0  0  0  0  0  0  0  0  0  0
  -18.7104   41.4703  -13.0867 C   0  0  2  0  0  0  0  0  0  0  0  0
  -10.5226   42.8827  -15.1126 N   0  0  0  0  0  0  0  0  0  0  0  0
   -9.6180   44.3078  -13.3106 C   0  0  0  0  0  0  0  0  0  0  0  0
  -16.9561   40.6099  -14.4807 O   0  0  0  0  0  0  0  0  0  0  0  0
  -10.2804   44.1769  -14.5260 C   0  0  0  0  0  0  0  0  0  0  0  0
  -12.9157   42.4598  -14.5055 C   0  0  0  0  0  0  0  0  0  0  0  0
  -19.0460   40.1258  -12.4624 C   0  0  0  0  0  0  0  0  0  0  0  0
  -19.6659   41.7946  -14.2222 C   0  0  0  0  0  0  0  0  0  0  0  0
  -11.6633   42.1366  -15.1627 C   0  0  0  0  0  0  0  0  0  0  0  0
   -9.8660   39.2919  -17.7437 F   0  0  0  0  0  0  0  0  0  0  0  0
   -9.4819   42.3015  -15.8192 N   0  0  0  0  0  0  0  0  0  0  0  0
  -14.4045   43.4853  -13.0173 N   0  0  0  0  0  0  0  0  0  0  0  0
  -16.4684   42.3921  -13.1494 N   0  0  0  0  0  0  0  0  0  0  0  0
  -14.3878   41.5649  -14.7330 S   0  0  0  0  0  0  0  0  0  0  0  0
   -8.9861   42.9180  -12.5039 Cl  0  0  0  0  0  0  0  0  0  0  0  0
  -11.4519   45.2088  -16.7115 Cl  0  0  0  0  0  0  0  0  0  0  0  0
  -10.8089   47.4891  -15.1501 H   0  0  0  0  0  0  0  0  0  0  0  0
   -9.6414   47.6784  -12.9634 H   0  0  0  0  0  0  0  0  0  0  0  0
   -8.8715   45.6325  -11.7788 H   0  0  0  0  0  0  0  0  0  0  0  0
   -8.8466   40.9757  -18.1234 H   0  0  0  0  0  0  0  0  0  0  0  0
  -12.0233   40.1658  -16.1672 H   0  0  0  0  0  0  0  0  0  0  0  0
  -12.3376   44.0939  -13.2264 H   0  0  0  0  0  0  0  0  0  0  0  0
  -18.8013   42.2439  -12.3100 H   0  0  0  0  0  0  0  0  0  0  0  0
  -19.0238   40.2147  -11.3663 H   0  0  0  0  0  0  0  0  0  0  0  0
  -20.0500   39.8123  -12.7846 H   0  0  0  0  0  0  0  0  0  0  0  0
  -18.3072   39.3772  -12.7846 H   0  0  0  0  0  0  0  0  0  0  0  0
  -20.6307   42.1221  -13.8074 H   0  0  0  0  0  0  0  0  0  0  0  0
  -19.2408   42.5988  -14.8408 H   0  0  0  0  0  0  0  0  0  0  0  0
  -19.8182   40.8978  -14.8408 H   0  0  0  0  0  0  0  0  0  0  0  0
  -16.8409   43.0364  -12.4374 H   0  0  0  0  0  0  0  0  0  0  0  0
  7  1  1  0
  2  3  2  0
  2 16  1  0
  2 27  1  0
  3  4  1  0
  4  5  2  0
  5 14  1  0
  6  7  1  0
  6  8  1  0
  6 22  2  0
  7 21  1  0
  8 20  2  0
  9 17  2  0
  9 23  1  0
 10 23  2  0
 10 24  1  0
 10 25  1  0
 11 12  1  0
 11 15  2  0
 11 24  1  0
 12 18  1  0
 12 19  1  0
 13 16  1  0
 13 20  1  0
 13 22  1  0
 14 16  2  0
 14 26  1  0
 17 20  1  0
 17 25  1  0
  3 28  1  0
  4 29  1  0
  5 30  1  0
  7 31  1  6
  8 32  1  0
  9 33  1  0
 12 34  1  1
 18 35  1  0
 18 36  1  0
 18 37  1  0
 19 38  1  0
 19 39  1  0
 19 40  1  0
 24 41  1  0
M  END
>  <filename_input>  (16) 
8AAU_LH0_docked.sdf

>  <pdb_id>  (16) 
8AAU_LH0

>  <pose_rank>  (16) 
15

>  <num_atoms_heavy>  (16) 
27

>  <num_torsions>  (16) 
4

>  <pose>  (16) 
[-10.016325068223068, 41.18190679250795, -16.32032895715355, -0.6595647367006146, 2.3940959214706736, -3.724933878070622, 0.26694877253989346, -3.6298108103862883, 0.29115889426129304, -0.9806603202447401]

>  <energy>  (16) 
-538.7126870639731

>  <inter_energy>  (16) 
-536.0292761817274

>  <intra_energy>  (16) 
20.905120203355786

>  <rmsd>  (16) 
7.22086

>  <sdf_rank>  (16) 
0

$$$$

     RDKit          3D

 41 43  0  0  0  0  0  0  0  0999 V2000
   -9.3286   46.8946  -12.1799 F   0  0  0  0  0  0  0  0  0  0  0  0
   -9.7011   42.9804  -16.6359 C   0  0  0  0  0  0  0  0  0  0  0  0
   -9.2169   41.7853  -17.1422 C   0  0  0  0  0  0  0  0  0  0  0  0
   -9.4423   40.6127  -16.4438 C   0  0  0  0  0  0  0  0  0  0  0  0
  -10.1479   40.6329  -15.2528 C   0  0  0  0  0  0  0  0  0  0  0  0
  -10.6968   46.1958  -13.9759 C   0  0  0  0  0  0  0  0  0  0  0  0
   -9.9699   47.3553  -13.2391 C   0  0  2  0  0  0  0  0  0  0  0  0
  -12.0789   45.9755  -14.1481 C   0  0  0  0  0  0  0  0  0  0  0  0
  -13.9288   43.9503  -16.4025 C   0  0  0  0  0  0  0  0  0  0  0  0
  -15.5015   42.8372  -15.3607 C   0  0  0  0  0  0  0  0  0  0  0  0
  -17.1709   41.6992  -14.0170 C   0  0  0  0  0  0  0  0  0  0  0  0
  -18.4768   40.9409  -14.0985 C   0  0  2  0  0  0  0  0  0  0  0  0
  -10.8963   44.2850  -14.9333 N   0  0  0  0  0  0  0  0  0  0  0  0
  -10.6257   41.8365  -14.7659 C   0  0  0  0  0  0  0  0  0  0  0  0
  -16.5756   41.8541  -12.9528 O   0  0  0  0  0  0  0  0  0  0  0  0
  -10.4027   43.0303  -15.4429 C   0  0  0  0  0  0  0  0  0  0  0  0
  -13.3765   44.0137  -15.1551 C   0  0  0  0  0  0  0  0  0  0  0  0
  -19.5757   41.8775  -14.5731 C   0  0  0  0  0  0  0  0  0  0  0  0
  -18.7996   40.3782  -12.7249 C   0  0  0  0  0  0  0  0  0  0  0  0
  -12.1758   44.7208  -14.7511 C   0  0  0  0  0  0  0  0  0  0  0  0
   -9.0613   47.9112  -14.0371 F   0  0  0  0  0  0  0  0  0  0  0  0
   -9.9593   45.1927  -14.4662 N   0  0  0  0  0  0  0  0  0  0  0  0
  -15.1225   43.2747  -16.5292 N   0  0  0  0  0  0  0  0  0  0  0  0
  -16.6960   42.1579  -15.2066 N   0  0  0  0  0  0  0  0  0  0  0  0
  -14.4372   43.1955  -14.0481 S   0  0  0  0  0  0  0  0  0  0  0  0
  -11.5810   41.8109  -13.3277 Cl  0  0  0  0  0  0  0  0  0  0  0  0
   -9.4691   44.4310  -17.5356 Cl  0  0  0  0  0  0  0  0  0  0  0  0
   -8.6589   41.7689  -18.0900 H   0  0  0  0  0  0  0  0  0  0  0  0
   -9.0590   39.6594  -16.8367 H   0  0  0  0  0  0  0  0  0  0  0  0
  -10.3270   39.6999  -14.6983 H   0  0  0  0  0  0  0  0  0  0  0  0
  -10.7316   48.0917  -12.9433 H   0  0  0  0  0  0  0  0  0  0  0  0
  -12.9031   46.6478  -13.8675 H   0  0  0  0  0  0  0  0  0  0  0  0
  -13.4409   44.4192  -17.2697 H   0  0  0  0  0  0  0  0  0  0  0  0
  -18.3968   40.1109  -14.8160 H   0  0  0  0  0  0  0  0  0  0  0  0
  -20.0873   42.3135  -13.7024 H   0  0  0  0  0  0  0  0  0  0  0  0
  -19.1350   42.6820  -15.1803 H   0  0  0  0  0  0  0  0  0  0  0  0
  -20.3002   41.3148  -15.1803 H   0  0  0  0  0  0  0  0  0  0  0  0
  -18.4109   41.0557  -11.9505 H   0  0  0  0  0  0  0  0  0  0  0  0
  -19.8899   40.2825  -12.6148 H   0  0  0  0  0  0  0  0  0  0  0  0
  -18.3318   39.3887  -12.6148 H   0  0  0  0  0  0  0  0  0  0  0  0
  -17.2642   41.9878  -16.0486 H   0  0  0  0  0  0  0  0  0  0  0  0
  7  1  1  0
  2  3  2  0
  2 16  1  0
  2 27  1  0
  3  4  1  0
  4  5  2  0
  5 14  1  0
  6  7  1  0
  6  8  1  0
  6 22  2  0
  7 21  1  0
  8 20  2  0
  9 17  2  0
  9 23  1  0
 10 23  2  0
 10 24  1  0
 10 25  1  0
 11 12  1  0
 11 15  2  0
 11 24  1  0
 12 18  1  0
 12 19  1  0
 13 16  1  0
 13 20  1  0
 13 22  1  0
 14 16  2  0
 14 26  1  0
 17 20  1  0
 17 25  1  0
  3 28  1  0
  4 29  1  0
  5 30  1  0
  7 31  1  1
  8 32  1  0
  9 33  1  0
 12 34  1  6
 18 35  1  0
 18 36  1  0
 18 37  1  0
 19 38  1  0
 19 39  1  0
 19 40  1  0
 24 41  1  0
M  END
>  <filename_input>  (17) 
8AAU_LH0_docked.sdf

>  <pdb_id>  (17) 
8AAU_LH0

>  <pose_rank>  (17) 
16

>  <num_atoms_heavy>  (17) 
27

>  <num_torsions>  (17) 
4

>  <pose>  (17) 
[-10.696759807425197, 46.19582542427991, -13.97592774966028, 2.069312535419732, -1.8380590962910863, -1.3736143166012345, 3.623443571387072, 1.4716769790434, 1.3232896631931235, -3.178986973058746]

>  <energy>  (17) 
-506.57479041342543

>  <inter_energy>  (17) 
-529.0659394633096

>  <intra_energy>  (17) 
23.982644961928877

>  <rmsd>  (17) 
7.10206

>  <sdf_rank>  (17) 
0

$$$$

     RDKit          3D

 41 43  0  0  0  0  0  0  0  0999 V2000
   -7.7173   42.7929  -17.2721 F   0  0  0  0  0  0  0  0  0  0  0  0
  -11.8597   45.2952  -14.1535 C   0  0  0  0  0  0  0  0  0  0  0  0
  -12.0405   46.1660  -13.0913 C   0  0  0  0  0  0  0  0  0  0  0  0
  -11.5889   45.8049  -11.8347 C   0  0  0  0  0  0  0  0  0  0  0  0
  -10.9594   44.5871  -11.6413 C   0  0  0  0  0  0  0  0  0  0  0  0
   -9.9333   42.2355  -16.6684 C   0  0  0  0  0  0  0  0  0  0  0  0
   -8.6938   41.9517  -17.5621 C   0  0  2  0  0  0  0  0  0  0  0  0
  -11.2764   41.8492  -16.8564 C   0  0  0  0  0  0  0  0  0  0  0  0
  -14.2267   43.4448  -15.1593 C   0  0  0  0  0  0  0  0  0  0  0  0
  -15.7248   41.8493  -15.0727 C   0  0  0  0  0  0  0  0  0  0  0  0
  -17.2137   39.9363  -14.9672 C   0  0  0  0  0  0  0  0  0  0  0  0
  -18.6448   39.5319  -14.6924 C   0  0  2  0  0  0  0  0  0  0  0  0
  -11.0643   43.1759  -15.1050 N   0  0  0  0  0  0  0  0  0  0  0  0
  -10.7858   43.7331  -12.7158 C   0  0  0  0  0  0  0  0  0  0  0  0
  -16.3650   39.1204  -15.3206 O   0  0  0  0  0  0  0  0  0  0  0  0
  -11.2407   44.0676  -13.9864 C   0  0  0  0  0  0  0  0  0  0  0  0
  -13.4100   42.4300  -15.5693 C   0  0  0  0  0  0  0  0  0  0  0  0
  -19.2972   39.0731  -15.9862 C   0  0  0  0  0  0  0  0  0  0  0  0
  -19.3831   40.7226  -14.1052 C   0  0  0  0  0  0  0  0  0  0  0  0
  -11.9862   42.4914  -15.8412 C   0  0  0  0  0  0  0  0  0  0  0  0
   -8.2339   40.7233  -17.3363 F   0  0  0  0  0  0  0  0  0  0  0  0
   -9.7782   43.0224  -15.5974 N   0  0  0  0  0  0  0  0  0  0  0  0
  -15.5398   43.1271  -14.8906 N   0  0  0  0  0  0  0  0  0  0  0  0
  -16.9539   41.2646  -14.8291 N   0  0  0  0  0  0  0  0  0  0  0  0
  -14.3382   40.9611  -15.5950 S   0  0  0  0  0  0  0  0  0  0  0  0
   -9.9138   42.2655  -12.4564 Cl  0  0  0  0  0  0  0  0  0  0  0  0
  -12.3712   45.7709  -15.7282 Cl  0  0  0  0  0  0  0  0  0  0  0  0
  -12.5381   47.1348  -13.2457 H   0  0  0  0  0  0  0  0  0  0  0  0
  -11.7308   46.4887  -10.9848 H   0  0  0  0  0  0  0  0  0  0  0  0
  -10.6002   44.3010  -10.6417 H   0  0  0  0  0  0  0  0  0  0  0  0
   -9.0062   42.0643  -18.6108 H   0  0  0  0  0  0  0  0  0  0  0  0
  -11.6780   41.1847  -17.6356 H   0  0  0  0  0  0  0  0  0  0  0  0
  -13.8516   44.4729  -15.0482 H   0  0  0  0  0  0  0  0  0  0  0  0
  -18.6793   38.6993  -13.9743 H   0  0  0  0  0  0  0  0  0  0  0  0
  -20.1768   38.4547  -15.7542 H   0  0  0  0  0  0  0  0  0  0  0  0
  -19.6101   39.9511  -16.5705 H   0  0  0  0  0  0  0  0  0  0  0  0
  -18.5770   38.4816  -16.5705 H   0  0  0  0  0  0  0  0  0  0  0  0
  -19.3500   40.6693  -13.0070 H   0  0  0  0  0  0  0  0  0  0  0  0
  -18.9036   41.6536  -14.4418 H   0  0  0  0  0  0  0  0  0  0  0  0
  -20.4302   40.7071  -14.4418 H   0  0  0  0  0  0  0  0  0  0  0  0
  -17.7244   41.8757  -14.5227 H   0  0  0  0  0  0  0  0  0  0  0  0
  7  1  1  0
  2  3  2  0
  2 16  1  0
  2 27  1  0
  3  4  1  0
  4  5  2  0
  5 14  1  0
  6  7  1  0
  6  8  1  0
  6 22  2  0
  7 21  1  0
  8 20  2  0
  9 17  2  0
  9 23  1  0
 10 23  2  0
 10 24  1  0
 10 25  1  0
 11 12  1  0
 11 15  2  0
 11 24  1  0
 12 18  1  0
 12 19  1  0
 13 16  1  0
 13 20  1  0
 13 22  1  0
 14 16  2  0
 14 26  1  0
 17 20  1  0
 17 25  1  0
  3 28  1  0
  4 29  1  0
  5 30  1  0
  7 31  1  6
  8 32  1  0
  9 33  1  0
 12 34  1  1
 18 35  1  0
 18 36  1  0
 18 37  1  0
 19 38  1  0
 19 39  1  0
 19 40  1  0
 24 41  1  0
M  END
>  <filename_input>  (18) 
8AAU_LH0_docked.sdf

>  <pdb_id>  (18) 
8AAU_LH0

>  <pose_rank>  (18) 
17

>  <num_atoms_heavy>  (18) 
27

>  <num_torsions>  (18) 
4

>  <pose>  (18) 
[-9.933312031176584, 42.23552443538134, -16.66838765587182, -0.7955539041502986, 2.9782514201915475, -2.704358898471226, 0.44744668618211125, -2.7105416973370886, -1.8781079167964834, -2.358417288077905]

>  <energy>  (18) 
-393.9757958626208

>  <inter_energy>  (18) 
-408.28919595685124

>  <intra_energy>  (18) 
45.69899752596951

>  <rmsd>  (18) 
7.65539

>  <sdf_rank>  (18) 
0

$$$$

     RDKit          3D

 41 43  0  0  0  0  0  0  0  0999 V2000
  -18.7815   41.3927  -15.0681 F   0  0  0  0  0  0  0  0  0  0  0  0
  -13.3817   42.4291  -15.8007 C   0  0  0  0  0  0  0  0  0  0  0  0
  -12.2005   41.9582  -16.3503 C   0  0  0  0  0  0  0  0  0  0  0  0
  -11.4542   41.0245  -15.6540 C   0  0  0  0  0  0  0  0  0  0  0  0
  -11.8854   40.5627  -14.4221 C   0  0  0  0  0  0  0  0  0  0  0  0
  -17.1906   42.5131  -13.7267 C   0  0  0  0  0  0  0  0  0  0  0  0
  -18.6640   42.0652  -13.9371 C   0  0  2  0  0  0  0  0  0  0  0  0
  -16.6915   43.6740  -13.1010 C   0  0  0  0  0  0  0  0  0  0  0  0
  -13.9732   45.7821  -13.4782 C   0  0  0  0  0  0  0  0  0  0  0  0
  -12.4656   45.8386  -11.8902 C   0  0  0  0  0  0  0  0  0  0  0  0
  -10.8232   45.6794  -10.1113 C   0  0  0  0  0  0  0  0  0  0  0  0
   -9.6844   46.4206   -9.4474 C   0  0  2  0  0  0  0  0  0  0  0  0
  -15.0633   42.4949  -14.0125 N   0  0  0  0  0  0  0  0  0  0  0  0
  -13.0695   41.0433  -13.8922 C   0  0  0  0  0  0  0  0  0  0  0  0
  -11.2215   44.5937   -9.6946 O   0  0  0  0  0  0  0  0  0  0  0  0
  -13.8320   41.9903  -14.5667 C   0  0  0  0  0  0  0  0  0  0  0  0
  -14.3172   44.6022  -12.8827 C   0  0  0  0  0  0  0  0  0  0  0  0
   -9.7319   47.8853   -9.8508 C   0  0  0  0  0  0  0  0  0  0  0  0
   -8.3736   45.7828   -9.8747 C   0  0  0  0  0  0  0  0  0  0  0  0
  -15.3141   43.6440  -13.3220 C   0  0  0  0  0  0  0  0  0  0  0  0
  -19.0434   41.2511  -12.9550 F   0  0  0  0  0  0  0  0  0  0  0  0
  -16.2171   41.7708  -14.2667 N   0  0  0  0  0  0  0  0  0  0  0  0
  -12.9371   46.4935  -12.9145 N   0  0  0  0  0  0  0  0  0  0  0  0
  -11.3879   46.3203  -11.1703 N   0  0  0  0  0  0  0  0  0  0  0  0
  -13.2517   44.3419  -11.5348 S   0  0  0  0  0  0  0  0  0  0  0  0
  -13.6231   40.3758  -12.3990 Cl  0  0  0  0  0  0  0  0  0  0  0  0
  -14.3384   43.5485  -16.6949 Cl  0  0  0  0  0  0  0  0  0  0  0  0
  -11.8594   42.3229  -17.3304 H   0  0  0  0  0  0  0  0  0  0  0  0
  -10.5135   40.6471  -16.0812 H   0  0  0  0  0  0  0  0  0  0  0  0
  -11.2915   39.8199  -13.8694 H   0  0  0  0  0  0  0  0  0  0  0  0
  -19.2882   42.9707  -13.9559 H   0  0  0  0  0  0  0  0  0  0  0  0
  -17.2646   44.4386  -12.5560 H   0  0  0  0  0  0  0  0  0  0  0  0
  -14.5013   46.1489  -14.3707 H   0  0  0  0  0  0  0  0  0  0  0  0
   -9.7716   46.3611   -8.3525 H   0  0  0  0  0  0  0  0  0  0  0  0
   -9.7524   48.5137   -8.9482 H   0  0  0  0  0  0  0  0  0  0  0  0
   -8.8413   48.1302  -10.4481 H   0  0  0  0  0  0  0  0  0  0  0  0
  -10.6366   48.0719  -10.4481 H   0  0  0  0  0  0  0  0  0  0  0  0
   -7.7949   45.5012   -8.9826 H   0  0  0  0  0  0  0  0  0  0  0  0
   -8.5813   44.8850  -10.4754 H   0  0  0  0  0  0  0  0  0  0  0  0
   -7.7954   46.5002  -10.4754 H   0  0  0  0  0  0  0  0  0  0  0  0
  -10.9856   47.2248  -11.4547 H   0  0  0  0  0  0  0  0  0  0  0  0
  7  1  1  0
  2  3  2  0
  2 16  1  0
  2 27  1  0
  3  4  1  0
  4  5  2  0
  5 14  1  0
  6  7  1  0
  6  8  1  0
  6 22  2  0
  7 21  1  0
  8 20  2  0
  9 17  2  0
  9 23  1  0
 10 23  2  0
 10 24  1  0
 10 25  1  0
 11 12  1  0
 11 15  2  0
 11 24  1  0
 12 18  1  0
 12 19  1  0
 13 16  1  0
 13 20  1  0
 13 22  1  0
 14 16  2  0
 14 26  1  0
 17 20  1  0
 17 25  1  0
  3 28  1  0
  4 29  1  0
  5 30  1  0
  7 31  1  6
  8 32  1  0
  9 33  1  0
 12 34  1  1
 18 35  1  0
 18 36  1  0
 18 37  1  0
 19 38  1  0
 19 39  1  0
 19 40  1  0
 24 41  1  0
M  END
>  <filename_input>  (19) 
8AAU_LH0_docked.sdf

>  <pdb_id>  (19) 
8AAU_LH0

>  <pose_rank>  (19) 
18

>  <num_atoms_heavy>  (19) 
27

>  <num_torsions>  (19) 
4

>  <pose>  (19) 
[-17.19061054282196, 42.513103877887175, -13.726729576755234, -18.190503719962745, 1.1890221992782106, -5.586955648776377, 6.467529256313964, -1.6863599831402454, -3.5271067793102695, -2.604479032487995]

>  <energy>  (19) 
-658.4247196619323

>  <inter_energy>  (19) 
-684.7627721655456

>  <intra_energy>  (19) 
1.5849158211785113

>  <rmsd>  (19) 
1.68575

>  <sdf_rank>  (19) 
0

$$$$

     RDKit          3D

 41 43  0  0  0  0  0  0  0  0999 V2000
  -10.9626   40.1438  -20.7190 F   0  0  0  0  0  0  0  0  0  0  0  0
  -10.7471   42.4842  -14.4355 C   0  0  0  0  0  0  0  0  0  0  0  0
  -10.3889   43.4031  -13.4628 C   0  0  0  0  0  0  0  0  0  0  0  0
  -10.3728   44.7503  -13.7765 C   0  0  0  0  0  0  0  0  0  0  0  0
  -10.7148   45.1760  -15.0487 C   0  0  0  0  0  0  0  0  0  0  0  0
  -11.0882   40.6466  -18.4131 C   0  0  0  0  0  0  0  0  0  0  0  0
  -10.2799   40.0381  -19.5929 C   0  0  2  0  0  0  0  0  0  0  0  0
  -12.4691   40.5625  -18.1402 C   0  0  0  0  0  0  0  0  0  0  0  0
  -14.2207   42.7616  -15.5735 C   0  0  0  0  0  0  0  0  0  0  0  0
  -16.0953   41.6749  -15.2531 C   0  0  0  0  0  0  0  0  0  0  0  0
  -18.0635   40.2858  -14.9630 C   0  0  0  0  0  0  0  0  0  0  0  0
  -19.4299   40.2452  -14.3163 C   0  0  2  0  0  0  0  0  0  0  0  0
  -11.4537   41.9088  -16.7157 N   0  0  0  0  0  0  0  0  0  0  0  0
  -11.0725   44.2425  -16.0049 C   0  0  0  0  0  0  0  0  0  0  0  0
  -17.6555   39.3717  -15.6764 O   0  0  0  0  0  0  0  0  0  0  0  0
  -11.0856   42.8820  -15.7182 C   0  0  0  0  0  0  0  0  0  0  0  0
  -13.9228   41.6845  -16.3586 C   0  0  0  0  0  0  0  0  0  0  0  0
  -20.3225   41.2964  -14.9553 C   0  0  0  0  0  0  0  0  0  0  0  0
  -19.2716   40.5006  -12.8273 C   0  0  0  0  0  0  0  0  0  0  0  0
  -12.6775   41.4073  -17.0493 C   0  0  0  0  0  0  0  0  0  0  0  0
   -9.1390   40.7025  -19.7616 F   0  0  0  0  0  0  0  0  0  0  0  0
  -10.4484   41.4404  -17.5465 N   0  0  0  0  0  0  0  0  0  0  0  0
  -15.4525   42.7701  -14.9570 N   0  0  0  0  0  0  0  0  0  0  0  0
  -17.3468   41.4174  -14.7245 N   0  0  0  0  0  0  0  0  0  0  0  0
  -15.2655   40.5827  -16.3032 S   0  0  0  0  0  0  0  0  0  0  0  0
  -11.5831   44.8161  -17.5515 Cl  0  0  0  0  0  0  0  0  0  0  0  0
  -10.8220   40.8123  -14.0270 Cl  0  0  0  0  0  0  0  0  0  0  0  0
  -10.1201   43.0650  -12.4512 H   0  0  0  0  0  0  0  0  0  0  0  0
  -10.0868   45.4870  -13.0113 H   0  0  0  0  0  0  0  0  0  0  0  0
  -10.7021   46.2475  -15.2971 H   0  0  0  0  0  0  0  0  0  0  0  0
  -10.0844   38.9824  -19.3537 H   0  0  0  0  0  0  0  0  0  0  0  0
  -13.2203   39.9605  -18.6726 H   0  0  0  0  0  0  0  0  0  0  0  0
  -13.5069   43.5877  -15.4392 H   0  0  0  0  0  0  0  0  0  0  0  0
  -19.8970   39.2602  -14.4632 H   0  0  0  0  0  0  0  0  0  0  0  0
  -20.8200   41.8824  -14.1685 H   0  0  0  0  0  0  0  0  0  0  0  0
  -19.7120   41.9651  -15.5800 H   0  0  0  0  0  0  0  0  0  0  0  0
  -21.0814   40.8025  -15.5800 H   0  0  0  0  0  0  0  0  0  0  0  0
  -19.7688   39.6981  -12.2627 H   0  0  0  0  0  0  0  0  0  0  0  0
  -18.2022   40.5214  -12.5704 H   0  0  0  0  0  0  0  0  0  0  0  0
  -19.7293   41.4674  -12.5704 H   0  0  0  0  0  0  0  0  0  0  0  0
  -17.7643   42.1299  -14.1089 H   0  0  0  0  0  0  0  0  0  0  0  0
  7  1  1  0
  2  3  2  0
  2 16  1  0
  2 27  1  0
  3  4  1  0
  4  5  2  0
  5 14  1  0
  6  7  1  0
  6  8  1  0
  6 22  2  0
  7 21  1  0
  8 20  2  0
  9 17  2  0
  9 23  1  0
 10 23  2  0
 10 24  1  0
 10 25  1  0
 11 12  1  0
 11 15  2  0
 11 24  1  0
 12 18  1  0
 12 19  1  0
 13 16  1  0
 13 20  1  0
 13 22  1  0
 14 16  2  0
 14 26  1  0
 17 20  1  0
 17 25  1  0
  3 28  1  0
  4 29  1  0
  5 30  1  0
  7 31  1  1
  8 32  1  0
  9 33  1  0
 12 34  1  1
 18 35  1  0
 18 36  1  0
 18 37  1  0
 19 38  1  0
 19 39  1  0
 19 40  1  0
 24 41  1  0
M  END
>  <filename_input>  (20) 
8AAU_LH0_docked.sdf

>  <pdb_id>  (20) 
8AAU_LH0

>  <pose_rank>  (20) 
19

>  <num_atoms_heavy>  (20) 
27

>  <num_torsions>  (20) 
4

>  <pose>  (20) 
[-11.088200930348718, 40.64658632958507, -18.41305313038327, 0.39001942743345214, -1.2613265204022066, 1.2107439448166577, 3.2119153222144856, -3.0192482779770504, -2.665015625325368, 1.807031137230877]

>  <energy>  (20) 
-487.37989721549684

>  <inter_energy>  (20) 
-518.3232203126205

>  <intra_energy>  (20) 
16.764764297716862

>  <rmsd>  (20) 
7.46352

>  <sdf_rank>  (20) 
0

$$$$

     RDKit          3D

 41 43  0  0  0  0  0  0  0  0999 V2000
  -10.2927   39.3544  -20.8229 F   0  0  0  0  0  0  0  0  0  0  0  0
  -11.1978   41.3878  -14.8433 C   0  0  0  0  0  0  0  0  0  0  0  0
  -10.6428   42.2171  -13.8824 C   0  0  0  0  0  0  0  0  0  0  0  0
   -9.9226   43.3289  -14.2809 C   0  0  0  0  0  0  0  0  0  0  0  0
   -9.7614   43.6119  -15.6265 C   0  0  0  0  0  0  0  0  0  0  0  0
  -11.5642   39.3968  -18.8311 C   0  0  0  0  0  0  0  0  0  0  0  0
  -10.9139   38.5609  -19.9687 C   0  0  2  0  0  0  0  0  0  0  0  0
  -12.9256   39.6825  -18.6000 C   0  0  0  0  0  0  0  0  0  0  0  0
  -14.1843   42.4743  -16.4112 C   0  0  0  0  0  0  0  0  0  0  0  0
  -16.1471   41.7738  -15.7373 C   0  0  0  0  0  0  0  0  0  0  0  0
  -18.2416   40.7889  -15.0088 C   0  0  0  0  0  0  0  0  0  0  0  0
  -19.5499   41.1033  -14.3185 C   0  0  2  0  0  0  0  0  0  0  0  0
  -11.6294   40.7660  -17.1792 N   0  0  0  0  0  0  0  0  0  0  0  0
  -10.3262   42.7729  -16.5703 C   0  0  0  0  0  0  0  0  0  0  0  0
  -18.0028   39.6752  -15.4710 O   0  0  0  0  0  0  0  0  0  0  0  0
  -11.0448   41.6430  -16.1960 C   0  0  0  0  0  0  0  0  0  0  0  0
  -14.0796   41.2014  -16.8948 C   0  0  0  0  0  0  0  0  0  0  0  0
  -19.3412   42.2444  -13.3364 C   0  0  0  0  0  0  0  0  0  0  0  0
  -20.0355   39.8542  -13.6032 C   0  0  0  0  0  0  0  0  0  0  0  0
  -12.9331   40.5881  -17.5384 C   0  0  0  0  0  0  0  0  0  0  0  0
  -10.0012   37.7317  -19.4680 F   0  0  0  0  0  0  0  0  0  0  0  0
  -10.7609   40.0258  -17.9654 N   0  0  0  0  0  0  0  0  0  0  0  0
  -15.3556   42.8095  -15.7686 N   0  0  0  0  0  0  0  0  0  0  0  0
  -17.3769   41.8346  -15.1081 N   0  0  0  0  0  0  0  0  0  0  0  0
  -15.5380   40.3454  -16.4943 S   0  0  0  0  0  0  0  0  0  0  0  0
  -10.1845   43.2083  -18.2352 Cl  0  0  0  0  0  0  0  0  0  0  0  0
  -12.1423   40.0362  -14.3447 Cl  0  0  0  0  0  0  0  0  0  0  0  0
  -10.7735   41.9938  -12.8132 H   0  0  0  0  0  0  0  0  0  0  0  0
   -9.4759   43.9914  -13.5249 H   0  0  0  0  0  0  0  0  0  0  0  0
   -9.1889   44.4965  -15.9424 H   0  0  0  0  0  0  0  0  0  0  0  0
  -11.7162   38.0003  -20.4708 H   0  0  0  0  0  0  0  0  0  0  0  0
  -13.7945   39.2786  -19.1402 H   0  0  0  0  0  0  0  0  0  0  0  0
  -13.3675   43.2013  -16.5300 H   0  0  0  0  0  0  0  0  0  0  0  0
  -20.3084   41.4137  -15.0522 H   0  0  0  0  0  0  0  0  0  0  0  0
  -19.4114   41.8605  -12.3080 H   0  0  0  0  0  0  0  0  0  0  0  0
  -18.3471   42.6877  -13.4953 H   0  0  0  0  0  0  0  0  0  0  0  0
  -20.1140   43.0109  -13.4953 H   0  0  0  0  0  0  0  0  0  0  0  0
  -19.9758   40.0079  -12.5156 H   0  0  0  0  0  0  0  0  0  0  0  0
  -21.0783   39.6506  -13.8880 H   0  0  0  0  0  0  0  0  0  0  0  0
  -19.4041   38.9997  -13.8880 H   0  0  0  0  0  0  0  0  0  0  0  0
  -17.6571   42.7315  -14.6864 H   0  0  0  0  0  0  0  0  0  0  0  0
  7  1  1  0
  2  3  2  0
  2 16  1  0
  2 27  1  0
  3  4  1  0
  4  5  2  0
  5 14  1  0
  6  7  1  0
  6  8  1  0
  6 22  2  0
  7 21  1  0
  8 20  2  0
  9 17  2  0
  9 23  1  0
 10 23  2  0
 10 24  1  0
 10 25  1  0
 11 12  1  0
 11 15  2  0
 11 24  1  0
 12 18  1  0
 12 19  1  0
 13 16  1  0
 13 20  1  0
 13 22  1  0
 14 16  2  0
 14 26  1  0
 17 20  1  0
 17 25  1  0
  3 28  1  0
  4 29  1  0
  5 30  1  0
  7 31  1  6
  8 32  1  0
  9 33  1  0
 12 34  1  6
 18 35  1  0
 18 36  1  0
 18 37  1  0
 19 38  1  0
 19 39  1  0
 19 40  1  0
 24 41  1  0
M  END
>  <filename_input>  (21) 
8AAU_LH0_docked.sdf

>  <pdb_id>  (21) 
8AAU_LH0

>  <pose_rank>  (21) 
20

>  <num_atoms_heavy>  (21) 
27

>  <num_torsions>  (21) 
4

>  <pose>  (21) 
[-11.564204735779722, 39.396761230885964, -18.83108559063806, 0.17893225989636288, -1.2734697124570074, 1.0125941255438398, -3.4001866776786853, -2.7366628485061835, 1.967089463756975, -3.298353908010086]

>  <energy>  (21) 
-522.1004104921753

>  <inter_energy>  (21) 
-530.4970551275841

>  <intra_energy>  (21) 
23.178664372355634

>  <rmsd>  (21) 
7.4946

>  <sdf_rank>  (21) 
0

$$$$

     RDKit          3D

 41 43  0  0  0  0  0  0  0  0999 V2000
   -5.4749   44.2424  -16.6203 F   0  0  0  0  0  0  0  0  0  0  0  0
  -11.7742   45.3037  -14.3414 C   0  0  0  0  0  0  0  0  0  0  0  0
  -12.8061   45.7632  -13.5396 C   0  0  0  0  0  0  0  0  0  0  0  0
  -12.6371   45.7902  -12.1669 C   0  0  0  0  0  0  0  0  0  0  0  0
  -11.4473   45.3657  -11.6005 C   0  0  0  0  0  0  0  0  0  0  0  0
   -7.5696   44.4818  -15.5523 C   0  0  0  0  0  0  0  0  0  0  0  0
   -6.1728   45.0817  -15.8761 C   0  0  2  0  0  0  0  0  0  0  0  0
   -8.2512   43.4184  -16.1792 C   0  0  0  0  0  0  0  0  0  0  0  0
  -10.6176   41.4093  -16.6967 C   0  0  0  0  0  0  0  0  0  0  0  0
  -12.7387   41.3308  -16.1559 C   0  0  0  0  0  0  0  0  0  0  0  0
  -15.0705   41.4595  -15.4974 C   0  0  0  0  0  0  0  0  0  0  0  0
  -16.4044   40.7592  -15.6292 C   0  0  2  0  0  0  0  0  0  0  0  0
   -9.5166   44.3895  -14.6533 N   0  0  0  0  0  0  0  0  0  0  0  0
  -10.4279   44.9132  -12.4191 C   0  0  0  0  0  0  0  0  0  0  0  0
  -14.9295   42.4614  -14.7993 O   0  0  0  0  0  0  0  0  0  0  0  0
  -10.5768   44.8654  -13.8006 C   0  0  0  0  0  0  0  0  0  0  0  0
  -10.6153   42.4920  -15.8643 C   0  0  0  0  0  0  0  0  0  0  0  0
  -17.0384   40.6178  -14.2551 C   0  0  0  0  0  0  0  0  0  0  0  0
  -16.1790   39.3982  -16.2651 C   0  0  0  0  0  0  0  0  0  0  0  0
   -9.5160   43.3982  -15.5901 C   0  0  0  0  0  0  0  0  0  0  0  0
   -6.3047   46.2079  -16.5729 F   0  0  0  0  0  0  0  0  0  0  0  0
   -8.3108   45.0707  -14.6067 N   0  0  0  0  0  0  0  0  0  0  0  0
  -11.8106   40.7392  -16.8552 N   0  0  0  0  0  0  0  0  0  0  0  0
  -14.0447   40.8772  -16.1754 N   0  0  0  0  0  0  0  0  0  0  0  0
  -12.2273   42.7126  -15.2539 S   0  0  0  0  0  0  0  0  0  0  0  0
   -8.9259   44.4808  -11.6851 Cl  0  0  0  0  0  0  0  0  0  0  0  0
  -11.9653   45.3246  -16.0533 Cl  0  0  0  0  0  0  0  0  0  0  0  0
  -13.7504   46.1033  -13.9898 H   0  0  0  0  0  0  0  0  0  0  0  0
  -13.4521   46.1507  -11.5221 H   0  0  0  0  0  0  0  0  0  0  0  0
  -11.3136   45.3879  -10.5089 H   0  0  0  0  0  0  0  0  0  0  0  0
   -5.6621   45.2720  -14.9206 H   0  0  0  0  0  0  0  0  0  0  0  0
   -7.8684   42.7490  -16.9637 H   0  0  0  0  0  0  0  0  0  0  0  0
   -9.7050   41.0858  -17.2186 H   0  0  0  0  0  0  0  0  0  0  0  0
  -17.0856   41.3435  -16.2653 H   0  0  0  0  0  0  0  0  0  0  0  0
  -16.2763   40.7878  -13.4803 H   0  0  0  0  0  0  0  0  0  0  0  0
  -17.8445   41.3582  -14.1453 H   0  0  0  0  0  0  0  0  0  0  0  0
  -17.4534   39.6050  -14.1453 H   0  0  0  0  0  0  0  0  0  0  0  0
  -16.0537   38.6413  -15.4768 H   0  0  0  0  0  0  0  0  0  0  0  0
  -17.0461   39.1371  -16.8895 H   0  0  0  0  0  0  0  0  0  0  0  0
  -15.2740   39.4306  -16.8895 H   0  0  0  0  0  0  0  0  0  0  0  0
  -14.2551   40.0425  -16.7410 H   0  0  0  0  0  0  0  0  0  0  0  0
  7  1  1  0
  2  3  2  0
  2 16  1  0
  2 27  1  0
  3  4  1  0
  4  5  2  0
  5 14  1  0
  6  7  1  0
  6  8  1  0
  6 22  2  0
  7 21  1  0
  8 20  2  0
  9 17  2  0
  9 23  1  0
 10 23  2  0
 10 24  1  0
 10 25  1  0
 11 12  1  0
 11 15  2  0
 11 24  1  0
 12 18  1  0
 12 19  1  0
 13 16  1  0
 13 20  1  0
 13 22  1  0
 14 16  2  0
 14 26  1  0
 17 20  1  0
 17 25  1  0
  3 28  1  0
  4 29  1  0
  5 30  1  0
  7 31  1  1
  8 32  1  0
  9 33  1  0
 12 34  1  6
 18 35  1  0
 18 36  1  0
 18 37  1  0
 19 38  1  0
 19 39  1  0
 19 40  1  0
 24 41  1  0
M  END
>  <filename_input>  (22) 
8AAU_LH0_docked.sdf

>  <pdb_id>  (22) 
8AAU_LH0

>  <pose_rank>  (22) 
21

>  <num_atoms_heavy>  (22) 
27

>  <num_torsions>  (22) 
4

>  <pose>  (22) 
[-7.569607968909541, 44.48182603543808, -15.552340885979294, -0.8269251331140766, 2.1697240701427485, -2.45143963820465, 0.6473966293951073, -0.1589531364301762, -1.5115582577411595, 0.808027608264979]

>  <energy>  (22) 
-321.49595064906373

>  <inter_energy>  (22) 
-443.56708193323607

>  <intra_energy>  (22) 
127.24630213200889

>  <rmsd>  (22) 
8.20608

>  <sdf_rank>  (22) 
0

$$$$

     RDKit          3D

 41 43  0  0  0  0  0  0  0  0999 V2000
  -10.8147   40.3480  -18.6444 F   0  0  0  0  0  0  0  0  0  0  0  0
  -13.8922   43.9557  -14.3759 C   0  0  0  0  0  0  0  0  0  0  0  0
  -13.8353   44.5960  -13.1488 C   0  0  0  0  0  0  0  0  0  0  0  0
  -13.2993   43.9301  -12.0613 C   0  0  0  0  0  0  0  0  0  0  0  0
  -12.8213   42.6381  -12.1987 C   0  0  0  0  0  0  0  0  0  0  0  0
  -12.7188   41.4092  -17.7313 C   0  0  0  0  0  0  0  0  0  0  0  0
  -11.6819   41.3150  -18.8853 C   0  0  2  0  0  0  0  0  0  0  0  0
  -14.0860   41.0638  -17.7296 C   0  0  0  0  0  0  0  0  0  0  0  0
  -16.9520   42.2422  -16.1203 C   0  0  0  0  0  0  0  0  0  0  0  0
  -17.9793   40.8501  -14.7772 C   0  0  0  0  0  0  0  0  0  0  0  0
  -18.9146   39.2360  -13.2255 C   0  0  0  0  0  0  0  0  0  0  0  0
  -20.1801   38.8620  -12.4868 C   0  0  2  0  0  0  0  0  0  0  0  0
  -13.4992   42.0125  -15.8249 N   0  0  0  0  0  0  0  0  0  0  0  0
  -12.8845   42.0175  -13.4335 C   0  0  0  0  0  0  0  0  0  0  0  0
  -17.8966   38.5504  -13.1576 O   0  0  0  0  0  0  0  0  0  0  0  0
  -13.4288   42.6608  -14.5393 C   0  0  0  0  0  0  0  0  0  0  0  0
  -15.9152   41.3667  -15.9665 C   0  0  0  0  0  0  0  0  0  0  0  0
  -20.4401   39.8762  -11.3850 C   0  0  0  0  0  0  0  0  0  0  0  0
  -20.0132   37.4663  -11.9108 C   0  0  0  0  0  0  0  0  0  0  0  0
  -14.5675   41.4866  -16.4900 C   0  0  0  0  0  0  0  0  0  0  0  0
  -12.2920   41.0191  -20.0306 F   0  0  0  0  0  0  0  0  0  0  0  0
  -12.3359   41.9656  -16.5762 N   0  0  0  0  0  0  0  0  0  0  0  0
  -18.1265   41.9494  -15.4628 N   0  0  0  0  0  0  0  0  0  0  0  0
  -19.0043   40.3575  -13.9905 N   0  0  0  0  0  0  0  0  0  0  0  0
  -16.4298   40.0961  -14.8985 S   0  0  0  0  0  0  0  0  0  0  0  0
  -12.1939   40.4425  -13.5890 Cl  0  0  0  0  0  0  0  0  0  0  0  0
  -14.5072   44.8067  -15.7416 Cl  0  0  0  0  0  0  0  0  0  0  0  0
  -14.2124   45.6237  -13.0404 H   0  0  0  0  0  0  0  0  0  0  0  0
  -13.2527   44.4297  -11.0823 H   0  0  0  0  0  0  0  0  0  0  0  0
  -12.3949   42.1095  -11.3334 H   0  0  0  0  0  0  0  0  0  0  0  0
  -11.1718   42.2870  -18.9552 H   0  0  0  0  0  0  0  0  0  0  0  0
  -14.6512   40.5679  -18.5325 H   0  0  0  0  0  0  0  0  0  0  0  0
  -16.8533   43.1435  -16.7432 H   0  0  0  0  0  0  0  0  0  0  0  0
  -21.0416   38.8667  -13.1707 H   0  0  0  0  0  0  0  0  0  0  0  0
  -20.3161   39.3926  -10.4048 H   0  0  0  0  0  0  0  0  0  0  0  0
  -19.7261   40.7080  -11.4765 H   0  0  0  0  0  0  0  0  0  0  0  0
  -21.4662   40.2620  -11.4765 H   0  0  0  0  0  0  0  0  0  0  0  0
  -20.0196   37.5199  -10.8121 H   0  0  0  0  0  0  0  0  0  0  0  0
  -20.8414   36.8276  -12.2515 H   0  0  0  0  0  0  0  0  0  0  0  0
  -19.0578   37.0408  -12.2515 H   0  0  0  0  0  0  0  0  0  0  0  0
  -19.8953   40.8742  -13.9833 H   0  0  0  0  0  0  0  0  0  0  0  0
  7  1  1  0
  2  3  2  0
  2 16  1  0
  2 27  1  0
  3  4  1  0
  4  5  2  0
  5 14  1  0
  6  7  1  0
  6  8  1  0
  6 22  2  0
  7 21  1  0
  8 20  2  0
  9 17  2  0
  9 23  1  0
 10 23  2  0
 10 24  1  0
 10 25  1  0
 11 12  1  0
 11 15  2  0
 11 24  1  0
 12 18  1  0
 12 19  1  0
 13 16  1  0
 13 20  1  0
 13 22  1  0
 14 16  2  0
 14 26  1  0
 17 20  1  0
 17 25  1  0
  3 28  1  0
  4 29  1  0
  5 30  1  0
  7 31  1  6
  8 32  1  0
  9 33  1  0
 12 34  1  6
 18 35  1  0
 18 36  1  0
 18 37  1  0
 19 38  1  0
 19 39  1  0
 19 40  1  0
 24 41  1  0
M  END
>  <filename_input>  (23) 
8AAU_LH0_docked.sdf

>  <pdb_id>  (23) 
8AAU_LH0

>  <pose_rank>  (23) 
22

>  <num_atoms_heavy>  (23) 
27

>  <num_torsions>  (23) 
4

>  <pose>  (23) 
[-12.718841855775432, 41.40922805449559, -17.731316455105564, -1.307240383429761, 3.187106329247849, -2.4093046127299096, 0.32105978952352165, -1.7780270107054401, 1.2283889007577231, -0.7955662576614461]

>  <energy>  (23) 
-500.13267984563095

>  <inter_energy>  (23) 
-498.05454063103224

>  <intra_energy>  (23) 
5.645867479566974

>  <rmsd>  (23) 
7.47934

>  <sdf_rank>  (23) 
0

$$$$

     RDKit          3D

 41 43  0  0  0  0  0  0  0  0999 V2000
   -9.2188   37.2990  -23.2043 F   0  0  0  0  0  0  0  0  0  0  0  0
  -13.9363   39.6667  -20.6350 C   0  0  0  0  0  0  0  0  0  0  0  0
  -15.3177   39.5732  -20.5903 C   0  0  0  0  0  0  0  0  0  0  0  0
  -15.9037   38.3912  -20.1745 C   0  0  0  0  0  0  0  0  0  0  0  0
  -15.1175   37.3138  -19.8033 C   0  0  0  0  0  0  0  0  0  0  0  0
   -9.7428   38.2734  -21.1158 C   0  0  0  0  0  0  0  0  0  0  0  0
   -8.6947   37.5693  -22.0221 C   0  0  2  0  0  0  0  0  0  0  0  0
   -9.5412   39.0563  -19.9604 C   0  0  0  0  0  0  0  0  0  0  0  0
  -10.4821   40.2219  -17.1303 C   0  0  0  0  0  0  0  0  0  0  0  0
  -12.2526   41.3478  -16.5015 C   0  0  0  0  0  0  0  0  0  0  0  0
  -14.3263   42.4889  -15.9675 C   0  0  0  0  0  0  0  0  0  0  0  0
  -15.0183   43.3001  -14.8952 C   0  0  2  0  0  0  0  0  0  0  0  0
  -11.6908   38.7201  -20.3327 N   0  0  0  0  0  0  0  0  0  0  0  0
  -13.7397   37.4287  -19.8520 C   0  0  0  0  0  0  0  0  0  0  0  0
  -14.8553   42.2637  -17.0540 O   0  0  0  0  0  0  0  0  0  0  0  0
  -13.1263   38.6018  -20.2772 C   0  0  0  0  0  0  0  0  0  0  0  0
  -11.1872   40.0817  -18.2914 C   0  0  0  0  0  0  0  0  0  0  0  0
  -16.0391   44.2232  -15.5401 C   0  0  0  0  0  0  0  0  0  0  0  0
  -13.9713   44.0962  -14.1351 C   0  0  0  0  0  0  0  0  0  0  0  0
  -10.8204   39.3112  -19.4648 C   0  0  0  0  0  0  0  0  0  0  0  0
   -7.6517   38.3698  -22.2288 F   0  0  0  0  0  0  0  0  0  0  0  0
  -11.0410   38.0763  -21.3735 N   0  0  0  0  0  0  0  0  0  0  0  0
  -11.0716   40.9484  -16.1193 N   0  0  0  0  0  0  0  0  0  0  0  0
  -13.0728   42.0654  -15.6505 N   0  0  0  0  0  0  0  0  0  0  0  0
  -12.7136   40.8904  -18.1022 S   0  0  0  0  0  0  0  0  0  0  0  0
  -12.7918   36.0982  -19.2928 Cl  0  0  0  0  0  0  0  0  0  0  0  0
  -13.2083   41.1577  -21.0981 Cl  0  0  0  0  0  0  0  0  0  0  0  0
  -15.9423   40.4302  -20.8825 H   0  0  0  0  0  0  0  0  0  0  0  0
  -16.9999   38.3068  -20.1387 H   0  0  0  0  0  0  0  0  0  0  0  0
  -15.5844   36.3744  -19.4723 H   0  0  0  0  0  0  0  0  0  0  0  0
   -8.3821   36.6450  -21.5143 H   0  0  0  0  0  0  0  0  0  0  0  0
   -8.5821   39.3934  -19.5403 H   0  0  0  0  0  0  0  0  0  0  0  0
   -9.4852   39.7735  -17.0075 H   0  0  0  0  0  0  0  0  0  0  0  0
  -15.5463   42.6393  -14.1919 H   0  0  0  0  0  0  0  0  0  0  0  0
  -16.6118   44.7411  -14.7567 H   0  0  0  0  0  0  0  0  0  0  0  0
  -15.5198   44.9645  -16.1653 H   0  0  0  0  0  0  0  0  0  0  0  0
  -16.7246   43.6322  -16.1653 H   0  0  0  0  0  0  0  0  0  0  0  0
  -14.1317   43.9742  -13.0537 H   0  0  0  0  0  0  0  0  0  0  0  0
  -12.9685   43.7304  -14.4006 H   0  0  0  0  0  0  0  0  0  0  0  0
  -14.0557   45.1603  -14.4006 H   0  0  0  0  0  0  0  0  0  0  0  0
  -12.7106   42.2947  -14.7140 H   0  0  0  0  0  0  0  0  0  0  0  0
  7  1  1  0
  2  3  2  0
  2 16  1  0
  2 27  1  0
  3  4  1  0
  4  5  2  0
  5 14  1  0
  6  7  1  0
  6  8  1  0
  6 22  2  0
  7 21  1  0
  8 20  2  0
  9 17  2  0
  9 23  1  0
 10 23  2  0
 10 24  1  0
 10 25  1  0
 11 12  1  0
 11 15  2  0
 11 24  1  0
 12 18  1  0
 12 19  1  0
 13 16  1  0
 13 20  1  0
 13 22  1  0
 14 16  2  0
 14 26  1  0
 17 20  1  0
 17 25  1  0
  3 28  1  0
  4 29  1  0
  5 30  1  0
  7 31  1  1
  8 32  1  0
  9 33  1  0
 12 34  1  1
 18 35  1  0
 18 36  1  0
 18 37  1  0
 19 38  1  0
 19 39  1  0
 19 40  1  0
 24 41  1  0
M  END
>  <filename_input>  (24) 
8AAU_LH0_docked.sdf

>  <pdb_id>  (24) 
8AAU_LH0

>  <pose_rank>  (24) 
23

>  <num_atoms_heavy>  (24) 
27

>  <num_torsions>  (24) 
4

>  <pose>  (24) 
[-9.742827293026117, 38.27335564801491, -21.115772288831838, 0.6994965679306381, 2.0155987492368572, 2.2419586332773487, -3.2792596187597525, -0.7962762602741563, -1.1532177780687587, -1.6906032931654267]

>  <energy>  (24) 
-149.59122323156882

>  <inter_energy>  (24) 
-204.04352678675085

>  <intra_energy>  (24) 
58.10464828517311

>  <rmsd>  (24) 
8.36063

>  <sdf_rank>  (24) 
0

$$$$

     RDKit          3D

 41 43  0  0  0  0  0  0  0  0999 V2000
  -10.4178   37.6013  -21.6874 F   0  0  0  0  0  0  0  0  0  0  0  0
   -9.7981   41.3236  -16.4110 C   0  0  0  0  0  0  0  0  0  0  0  0
   -9.1438   42.4518  -15.9440 C   0  0  0  0  0  0  0  0  0  0  0  0
   -8.6257   43.3587  -16.8510 C   0  0  0  0  0  0  0  0  0  0  0  0
   -8.7629   43.1428  -18.2116 C   0  0  0  0  0  0  0  0  0  0  0  0
  -10.8250   38.1204  -19.4179 C   0  0  0  0  0  0  0  0  0  0  0  0
  -10.4237   37.0609  -20.4819 C   0  0  2  0  0  0  0  0  0  0  0  0
  -12.0670   38.3189  -18.7803 C   0  0  0  0  0  0  0  0  0  0  0  0
  -12.9362   41.4585  -16.8254 C   0  0  0  0  0  0  0  0  0  0  0  0
  -14.6169   40.7878  -15.5914 C   0  0  0  0  0  0  0  0  0  0  0  0
  -16.3946   39.8375  -14.2406 C   0  0  0  0  0  0  0  0  0  0  0  0
  -17.4971   40.1942  -13.2690 C   0  0  2  0  0  0  0  0  0  0  0  0
  -10.6254   39.8977  -18.2308 N   0  0  0  0  0  0  0  0  0  0  0  0
   -9.4226   42.0114  -18.6574 C   0  0  0  0  0  0  0  0  0  0  0  0
  -16.2200   38.6846  -14.6295 O   0  0  0  0  0  0  0  0  0  0  0  0
   -9.9423   41.0790  -17.7666 C   0  0  0  0  0  0  0  0  0  0  0  0
  -12.8874   40.1414  -17.1829 C   0  0  0  0  0  0  0  0  0  0  0  0
  -17.0780   41.4056  -12.4523 C   0  0  0  0  0  0  0  0  0  0  0  0
  -17.7594   38.9983  -12.3697 C   0  0  0  0  0  0  0  0  0  0  0  0
  -11.9120   39.4889  -18.0359 C   0  0  0  0  0  0  0  0  0  0  0  0
   -9.1926   36.6136  -20.2460 F   0  0  0  0  0  0  0  0  0  0  0  0
   -9.9280   39.0543  -19.0807 N   0  0  0  0  0  0  0  0  0  0  0  0
  -13.9200   41.8341  -15.9375 N   0  0  0  0  0  0  0  0  0  0  0  0
  -15.6451   40.8878  -14.6722 N   0  0  0  0  0  0  0  0  0  0  0  0
  -14.1430   39.2983  -16.3269 S   0  0  0  0  0  0  0  0  0  0  0  0
   -9.6569   41.8228  -20.3577 Cl  0  0  0  0  0  0  0  0  0  0  0  0
  -10.4925   40.2250  -15.2803 Cl  0  0  0  0  0  0  0  0  0  0  0  0
   -9.0373   42.6248  -14.8629 H   0  0  0  0  0  0  0  0  0  0  0  0
   -8.1019   44.2559  -16.4894 H   0  0  0  0  0  0  0  0  0  0  0  0
   -8.3510   43.8647  -18.9321 H   0  0  0  0  0  0  0  0  0  0  0  0
  -11.1539   36.2400  -20.4267 H   0  0  0  0  0  0  0  0  0  0  0  0
  -12.9646   37.6873  -18.8538 H   0  0  0  0  0  0  0  0  0  0  0  0
  -12.2198   42.1889  -17.2296 H   0  0  0  0  0  0  0  0  0  0  0  0
  -18.4215   40.4454  -13.8097 H   0  0  0  0  0  0  0  0  0  0  0  0
  -17.1591   41.1712  -11.3806 H   0  0  0  0  0  0  0  0  0  0  0  0
  -16.0371   41.6676  -12.6926 H   0  0  0  0  0  0  0  0  0  0  0  0
  -17.7346   42.2548  -12.6926 H   0  0  0  0  0  0  0  0  0  0  0  0
  -17.6912   39.3093  -11.3168 H   0  0  0  0  0  0  0  0  0  0  0  0
  -18.7657   38.6022  -12.5706 H   0  0  0  0  0  0  0  0  0  0  0  0
  -17.0112   38.2174  -12.5706 H   0  0  0  0  0  0  0  0  0  0  0  0
  -15.8578   41.8197  -14.2886 H   0  0  0  0  0  0  0  0  0  0  0  0
  7  1  1  0
  2  3  2  0
  2 16  1  0
  2 27  1  0
  3  4  1  0
  4  5  2  0
  5 14  1  0
  6  7  1  0
  6  8  1  0
  6 22  2  0
  7 21  1  0
  8 20  2  0
  9 17  2  0
  9 23  1  0
 10 23  2  0
 10 24  1  0
 10 25  1  0
 11 12  1  0
 11 15  2  0
 11 24  1  0
 12 18  1  0
 12 19  1  0
 13 16  1  0
 13 20  1  0
 13 22  1  0
 14 16  2  0
 14 26  1  0
 17 20  1  0
 17 25  1  0
  3 28  1  0
  4 29  1  0
  5 30  1  0
  7 31  1  6
  8 32  1  0
  9 33  1  0
 12 34  1  6
 18 35  1  0
 18 36  1  0
 18 37  1  0
 19 38  1  0
 19 39  1  0
 19 40  1  0
 24 41  1  0
M  END
>  <filename_input>  (25) 
8AAU_LH0_docked.sdf

>  <pdb_id>  (25) 
8AAU_LH0

>  <pose_rank>  (25) 
24

>  <num_atoms_heavy>  (25) 
27

>  <num_torsions>  (25) 
4

>  <pose>  (25) 
[-10.82498975615251, 38.12043537471857, -19.41791694242981, 0.23880684712201844, -0.7968509681238561, 1.2178567243808476, -3.593589490896598, -2.9564356478087435, 1.9176540063381076, -3.410974242505295]

>  <energy>  (25) 
-271.9967571098615

>  <inter_energy>  (25) 
-330.10209264884315

>  <intra_energy>  (25) 
67.33878292345081

>  <rmsd>  (25) 
7.89907

>  <sdf_rank>  (25) 
0

$$$$

     RDKit          3D

 41 43  0  0  0  0  0  0  0  0999 V2000
  -19.5150   40.8580  -13.2760 F   0  0  0  0  0  0  0  0  0  0  0  0
  -13.7700   42.2420  -16.1230 C   0  0  0  0  0  0  0  0  0  0  0  0
  -12.5590   41.9650  -16.7360 C   0  0  0  0  0  0  0  0  0  0  0  0
  -11.6630   41.1150  -16.1130 C   0  0  0  0  0  0  0  0  0  0  0  0
  -11.9750   40.5440  -14.8910 C   0  0  0  0  0  0  0  0  0  0  0  0
  -17.4950   41.8220  -14.0350 C   0  0  0  0  0  0  0  0  0  0  0  0
  -18.9350   41.3370  -14.3620 C   0  0  2  0  0  0  0  0  0  0  0  0
  -17.0760   42.8580  -13.1750 C   0  0  0  0  0  0  0  0  0  0  0  0
  -14.9830   44.6320  -11.6140 C   0  0  0  0  0  0  0  0  0  0  0  0
  -12.9740   45.3790  -12.0650 C   0  0  0  0  0  0  0  0  0  0  0  0
  -10.7790   46.1320  -12.7740 C   0  0  0  0  0  0  0  0  0  0  0  0
   -9.6300   47.0380  -12.3920 C   0  0  2  0  0  0  0  0  0  0  0  0
  -15.3690   41.9940  -14.2760 N   0  0  0  0  0  0  0  0  0  0  0  0
  -13.1910   40.8310  -14.2970 C   0  0  0  0  0  0  0  0  0  0  0  0
  -10.7310   45.4050  -13.7640 O   0  0  0  0  0  0  0  0  0  0  0  0
  -14.1040   41.6910  -14.8970 C   0  0  0  0  0  0  0  0  0  0  0  0
  -14.7680   43.8660  -12.7240 C   0  0  0  0  0  0  0  0  0  0  0  0
   -9.0620   47.6880  -13.6430 C   0  0  0  0  0  0  0  0  0  0  0  0
   -8.5720   46.2100  -11.6830 C   0  0  0  0  0  0  0  0  0  0  0  0
  -15.6980   42.9590  -13.3700 C   0  0  0  0  0  0  0  0  0  0  0  0
  -19.6790   42.3550  -14.7880 F   0  0  0  0  0  0  0  0  0  0  0  0
  -16.4720   41.2680  -14.6960 N   0  0  0  0  0  0  0  0  0  0  0  0
  -13.9680   45.4790  -11.2270 N   0  0  0  0  0  0  0  0  0  0  0  0
  -11.8410   46.1590  -11.9240 N   0  0  0  0  0  0  0  0  0  0  0  0
  -13.1940   44.2490  -13.3530 S   0  0  0  0  0  0  0  0  0  0  0  0
  -13.5850   40.0280  -12.8200 Cl  0  0  0  0  0  0  0  0  0  0  0  0
  -14.9080   43.2550  -16.9270 Cl  0  0  0  0  0  0  0  0  0  0  0  0
  -12.3124   42.4164  -17.7083 H   0  0  0  0  0  0  0  0  0  0  0  0
  -10.6978   40.8916  -16.5909 H   0  0  0  0  0  0  0  0  0  0  0  0
  -11.2620   39.8678  -14.3966 H   0  0  0  0  0  0  0  0  0  0  0  0
  -18.8572   40.5601  -15.1368 H   0  0  0  0  0  0  0  0  0  0  0  0
  -17.7008   43.4574  -12.4966 H   0  0  0  0  0  0  0  0  0  0  0  0
  -15.9272   44.5750  -11.0525 H   0  0  0  0  0  0  0  0  0  0  0  0
   -9.9748   47.8339  -11.7155 H   0  0  0  0  0  0  0  0  0  0  0  0
   -8.3633   48.4876  -13.3558 H   0  0  0  0  0  0  0  0  0  0  0  0
   -8.5295   46.9324  -14.2393 H   0  0  0  0  0  0  0  0  0  0  0  0
   -9.8821   48.1144  -14.2393 H   0  0  0  0  0  0  0  0  0  0  0  0
   -8.6978   46.3085  -10.5947 H   0  0  0  0  0  0  0  0  0  0  0  0
   -8.6796   45.1537  -11.9705 H   0  0  0  0  0  0  0  0  0  0  0  0
   -7.5725   46.5683  -11.9705 H   0  0  0  0  0  0  0  0  0  0  0  0
  -11.7982   46.8036  -11.1218 H   0  0  0  0  0  0  0  0  0  0  0  0
  7  1  1  0
  2  3  2  0
  2 16  1  0
  2 27  1  0
  3  4  1  0
  4  5  2  0
  5 14  1  0
  6  7  1  0
  6  8  1  0
  6 22  2  0
  7 21  1  0
  8 20  2  0
  9 17  2  0
  9 23  1  0
 10 23  2  0
 10 24  1  0
 10 25  1  0
 11 12  1  0
 11 15  2  0
 11 24  1  0
 12 18  1  0
 12 19  1  0
 13 16  1  0
 13 20  1  0
 13 22  1  0
 14 16  2  0
 14 26  1  0
 17 20  1  0
 17 25  1  0
  3 28  1  0
  4 29  1  0
  5 30  1  0
  7 31  1  6
  8 32  1  0
  9 33  1  0
 12 34  1  1
 18 35  1  0
 18 36  1  0
 18 37  1  0
 19 38  1  0
 19 39  1  0
 19 40  1  0
 24 41  1  0
M  END
>  <filename_input>  (26) 
8AAU_LH0_docked.sdf

>  <pdb_id>  (26) 
8AAU_LH0

>  <pose_rank>  (26) 
25

>  <num_atoms_heavy>  (26) 
27

>  <num_torsions>  (26) 
4

>  <pose>  (26) 
[-17.495, 41.822, -14.035, 1e-06, 1e-06, 1e-06, 0.0, 0.0, 0.0, 0.0]

>  <energy>  (26) 
-1193.1806039261714

>  <inter_energy>  (26) 
-1218.0982371331809

>  <intra_energy>  (26) 
29.147160884108736

>  <rmsd>  (26) 
0.0

>  <sdf_rank>  (26) 
0

$$$$
