
     RDKit          3D

 20 21  0  0  0  0  0  0  0  0999 V2000
 -109.6141 -176.6733  310.3976 C   0  0  0  0  0  0  0  0  0  0  0  0
 -108.4239 -176.0502  310.5810 C   0  0  0  0  0  0  0  0  0  0  0  0
 -107.8426 -175.0359  309.7545 C   0  0  0  0  0  0  0  0  0  0  0  0
 -107.1292 -175.5926  308.6140 C   0  0  0  0  0  0  0  0  0  0  0  0
 -107.7978 -176.7024  311.6858 C   0  0  0  0  0  0  0  0  0  0  0  0
 -106.5971 -176.5324  312.3479 C   0  0  0  0  0  0  0  0  0  0  0  0
 -109.7587 -177.6883  311.2863 N   0  0  0  0  0  0  0  0  0  0  0  0
 -108.3243 -178.5754  313.1411 C   0  0  0  0  0  0  0  0  0  0  0  0
 -106.2800 -177.3799  313.3878 C   0  0  0  0  0  0  0  0  0  0  0  0
 -108.6560 -177.7290  312.0967 C   0  0  0  0  0  0  0  0  0  0  0  0
 -106.5578 -176.0861  307.8166 N   0  0  0  0  0  0  0  0  0  0  0  0
 -104.8013 -177.1183  314.2654 Cl  0  0  0  0  0  0  0  0  0  0  0  0
 -107.1137 -178.3999  313.7825 C   0  0  0  0  0  0  0  0  0  0  0  0
 -110.3574 -176.3952  309.6359 H   0  0  0  0  0  0  0  0  0  0  0  0
 -108.6438 -174.3795  309.3843 H   0  0  0  0  0  0  0  0  0  0  0  0
 -107.1168 -174.4796  310.3658 H   0  0  0  0  0  0  0  0  0  0  0  0
 -105.9039 -175.7321  312.0493 H   0  0  0  0  0  0  0  0  0  0  0  0
 -110.5667 -178.3246  311.3422 H   0  0  0  0  0  0  0  0  0  0  0  0
 -109.0130 -179.3738  313.4547 H   0  0  0  0  0  0  0  0  0  0  0  0
 -106.8187 -179.0709  314.6027 H   0  0  0  0  0  0  0  0  0  0  0  0
  1  2  2  0
  1  7  1  0
  2  3  1  0
  2  5  1  0
  3  4  1  0
  4 11  3  0
  5  6  1  0
  5 10  2  0
  6  9  2  0
  7 10  1  0
  8 10  1  0
  8 13  2  0
  9 12  1  0
  9 13  1  0
  1 14  1  0
  3 15  1  0
  3 16  1  0
  6 17  1  0
  7 18  1  0
  8 19  1  0
 13 20  1  0
M  END
>  <filename_input>  (1) 
8AEM_LVF_docked.sdf

>  <pdb_id>  (1) 
8AEM_LVF

>  <pose_rank>  (1) 
0

>  <num_atoms_heavy>  (1) 
13

>  <num_torsions>  (1) 
2

>  <pose>  (1) 
[-109.61406302215532, -176.67331804495151, 310.3976117191848, -3.0180840331236842, 3.954168843456715, -3.5740313495182225, 0.39813464067965926, 0.9226947515690466]

>  <energy>  (1) 
-666.1000410759689

>  <inter_energy>  (1) 
-651.8362941107529

>  <intra_energy>  (1) 
0.0

>  <rmsd>  (1) 
0.491883

>  <sdf_rank>  (1) 
0

$$$$

     RDKit          3D

 20 21  0  0  0  0  0  0  0  0999 V2000
 -109.8919 -177.4690  312.2111 C   0  0  0  0  0  0  0  0  0  0  0  0
 -108.9319 -176.7317  311.6001 C   0  0  0  0  0  0  0  0  0  0  0  0
 -109.0969 -175.8539  310.4813 C   0  0  0  0  0  0  0  0  0  0  0  0
 -110.4848 -175.4593  310.2871 C   0  0  0  0  0  0  0  0  0  0  0  0
 -107.6945 -177.1080  312.2044 C   0  0  0  0  0  0  0  0  0  0  0  0
 -106.3803 -176.7208  312.0254 C   0  0  0  0  0  0  0  0  0  0  0  0
 -109.3375 -178.3016  313.1277 N   0  0  0  0  0  0  0  0  0  0  0  0
 -106.9850 -178.7003  313.8969 C   0  0  0  0  0  0  0  0  0  0  0  0
 -105.3959 -177.3247  312.7781 C   0  0  0  0  0  0  0  0  0  0  0  0
 -107.9836 -178.0995  313.1491 C   0  0  0  0  0  0  0  0  0  0  0  0
 -111.5542 -175.2614  310.1345 N   0  0  0  0  0  0  0  0  0  0  0  0
 -103.7519 -176.7848  312.6021 Cl  0  0  0  0  0  0  0  0  0  0  0  0
 -105.6753 -178.3110  313.6948 C   0  0  0  0  0  0  0  0  0  0  0  0
 -110.9682 -177.4016  311.9942 H   0  0  0  0  0  0  0  0  0  0  0  0
 -108.4926 -174.9502  310.6488 H   0  0  0  0  0  0  0  0  0  0  0  0
 -108.7719 -176.3939  309.5797 H   0  0  0  0  0  0  0  0  0  0  0  0
 -106.1232 -175.9418  311.2926 H   0  0  0  0  0  0  0  0  0  0  0  0
 -109.8516 -178.9760  313.7124 H   0  0  0  0  0  0  0  0  0  0  0  0
 -107.2305 -179.4742  314.6391 H   0  0  0  0  0  0  0  0  0  0  0  0
 -104.8620 -178.7862  314.2629 H   0  0  0  0  0  0  0  0  0  0  0  0
  1  2  2  0
  1  7  1  0
  2  3  1  0
  2  5  1  0
  3  4  1  0
  4 11  3  0
  5  6  1  0
  5 10  2  0
  6  9  2  0
  7 10  1  0
  8 10  1  0
  8 13  2  0
  9 12  1  0
  9 13  1  0
  1 14  1  0
  3 15  1  0
  3 16  1  0
  6 17  1  0
  7 18  1  0
  8 19  1  0
 13 20  1  0
M  END
>  <filename_input>  (2) 
8AEM_LVF_docked.sdf

>  <pdb_id>  (2) 
8AEM_LVF

>  <pose_rank>  (2) 
1

>  <num_atoms_heavy>  (2) 
13

>  <num_torsions>  (2) 
2

>  <pose>  (2) 
[-109.89191480026673, -177.46897602727117, 312.2110735085573, -0.05355858447155636, 0.5195031794993616, 0.20738569845179633, 2.189395727882799, 0.6208095774734105]

>  <energy>  (2) 
-549.6186969645622

>  <inter_energy>  (2) 
-555.6084427351124

>  <intra_energy>  (2) 
1.7757201312873159

>  <rmsd>  (2) 
2.32057

>  <sdf_rank>  (2) 
0

$$$$

     RDKit          3D

 20 21  0  0  0  0  0  0  0  0999 V2000
 -107.3305 -175.9103  309.0197 C   0  0  0  0  0  0  0  0  0  0  0  0
 -108.0812 -175.6639  310.1216 C   0  0  0  0  0  0  0  0  0  0  0  0
 -109.1279 -174.6965  310.2561 C   0  0  0  0  0  0  0  0  0  0  0  0
 -110.4364 -175.3149  310.4141 C   0  0  0  0  0  0  0  0  0  0  0  0
 -107.5300 -176.4643  311.1673 C   0  0  0  0  0  0  0  0  0  0  0  0
 -107.8447 -176.6559  312.4990 C   0  0  0  0  0  0  0  0  0  0  0  0
 -106.3310 -176.7798  309.3127 N   0  0  0  0  0  0  0  0  0  0  0  0
 -105.6529 -177.9892  311.4013 C   0  0  0  0  0  0  0  0  0  0  0  0
 -107.0648 -177.5037  313.2561 C   0  0  0  0  0  0  0  0  0  0  0  0
 -106.4300 -177.1423  310.6292 C   0  0  0  0  0  0  0  0  0  0  0  0
 -111.3765 -175.8562  310.5850 N   0  0  0  0  0  0  0  0  0  0  0  0
 -107.5060 -177.7984  314.9125 Cl  0  0  0  0  0  0  0  0  0  0  0  0
 -105.9735 -178.1580  312.7341 C   0  0  0  0  0  0  0  0  0  0  0  0
 -107.5069 -175.4677  308.0282 H   0  0  0  0  0  0  0  0  0  0  0  0
 -108.9224 -174.0737  311.1392 H   0  0  0  0  0  0  0  0  0  0  0  0
 -109.1496 -174.0948  309.3356 H   0  0  0  0  0  0  0  0  0  0  0  0
 -108.7053 -176.1391  312.9486 H   0  0  0  0  0  0  0  0  0  0  0  0
 -105.6144 -177.1130  308.6521 H   0  0  0  0  0  0  0  0  0  0  0  0
 -104.7951 -178.5185  310.9608 H   0  0  0  0  0  0  0  0  0  0  0  0
 -105.3607 -178.8106  313.3732 H   0  0  0  0  0  0  0  0  0  0  0  0
  1  2  2  0
  1  7  1  0
  2  3  1  0
  2  5  1  0
  3  4  1  0
  4 11  3  0
  5  6  1  0
  5 10  2  0
  6  9  2  0
  7 10  1  0
  8 10  1  0
  8 13  2  0
  9 12  1  0
  9 13  1  0
  1 14  1  0
  3 15  1  0
  3 16  1  0
  6 17  1  0
  7 18  1  0
  8 19  1  0
 13 20  1  0
M  END
>  <filename_input>  (3) 
8AEM_LVF_docked.sdf

>  <pdb_id>  (3) 
8AEM_LVF

>  <pose_rank>  (3) 
2

>  <num_atoms_heavy>  (3) 
13

>  <num_torsions>  (3) 
2

>  <pose>  (3) 
[-107.33049112373268, -175.9102597759318, 309.01969567387096, 0.9770701895604904, -1.092715946896438, 1.5266750254613577, 3.8172755409365022, 2.209106960291423]

>  <energy>  (3) 
-515.5470225562648

>  <inter_energy>  (3) 
-508.73806596894997

>  <intra_energy>  (3) 
1.3693027567820955

>  <rmsd>  (3) 
2.92944

>  <sdf_rank>  (3) 
0

$$$$

     RDKit          3D

 20 21  0  0  0  0  0  0  0  0999 V2000
 -106.1800 -177.1904  309.3166 C   0  0  0  0  0  0  0  0  0  0  0  0
 -107.1998 -176.6912  310.0577 C   0  0  0  0  0  0  0  0  0  0  0  0
 -108.2811 -175.8722  309.5999 C   0  0  0  0  0  0  0  0  0  0  0  0
 -107.9353 -175.1156  308.4051 C   0  0  0  0  0  0  0  0  0  0  0  0
 -106.9095 -177.0279  311.4143 C   0  0  0  0  0  0  0  0  0  0  0  0
 -107.5519 -176.8086  312.6178 C   0  0  0  0  0  0  0  0  0  0  0  0
 -105.2590 -177.7831  310.1174 N   0  0  0  0  0  0  0  0  0  0  0  0
 -105.1018 -178.1439  312.5933 C   0  0  0  0  0  0  0  0  0  0  0  0
 -106.9642 -177.2560  313.7817 C   0  0  0  0  0  0  0  0  0  0  0  0
 -105.6829 -177.7020  311.4167 C   0  0  0  0  0  0  0  0  0  0  0  0
 -107.5784 -174.5425  307.5391 N   0  0  0  0  0  0  0  0  0  0  0  0
 -107.8091 -177.0423  315.2869 Cl  0  0  0  0  0  0  0  0  0  0  0  0
 -105.7510 -177.9037  313.7884 C   0  0  0  0  0  0  0  0  0  0  0  0
 -106.1092 -177.1241  308.2209 H   0  0  0  0  0  0  0  0  0  0  0  0
 -109.1421 -176.5180  309.3726 H   0  0  0  0  0  0  0  0  0  0  0  0
 -108.5178 -175.1519  310.3969 H   0  0  0  0  0  0  0  0  0  0  0  0
 -108.5186 -176.2846  312.6467 H   0  0  0  0  0  0  0  0  0  0  0  0
 -104.3834 -178.2227  309.7995 H   0  0  0  0  0  0  0  0  0  0  0  0
 -104.1397 -178.6770  312.5765 H   0  0  0  0  0  0  0  0  0  0  0  0
 -105.3012 -178.2279  314.7384 H   0  0  0  0  0  0  0  0  0  0  0  0
  1  2  2  0
  1  7  1  0
  2  3  1  0
  2  5  1  0
  3  4  1  0
  4 11  3  0
  5  6  1  0
  5 10  2  0
  6  9  2  0
  7 10  1  0
  8 10  1  0
  8 13  2  0
  9 12  1  0
  9 13  1  0
  1 14  1  0
  3 15  1  0
  3 16  1  0
  6 17  1  0
  7 18  1  0
  8 19  1  0
 13 20  1  0
M  END
>  <filename_input>  (4) 
8AEM_LVF_docked.sdf

>  <pdb_id>  (4) 
8AEM_LVF

>  <pose_rank>  (4) 
3

>  <num_atoms_heavy>  (4) 
13

>  <num_torsions>  (4) 
2

>  <pose>  (4) 
[-106.17995067261081, -177.19035886106226, 309.3165980299669, 0.6066235112125634, -0.9199119669676327, 1.8723841108297108, 1.4142334982895546, 1.0602201011837304]

>  <energy>  (4) 
-545.1888917989461

>  <inter_energy>  (4) 
-543.5090295295065

>  <intra_energy>  (4) 
1.4215762051544283

>  <rmsd>  (4) 
2.72324

>  <sdf_rank>  (4) 
0

$$$$

     RDKit          3D

 20 21  0  0  0  0  0  0  0  0999 V2000
 -108.1071 -178.3616  314.1514 C   0  0  0  0  0  0  0  0  0  0  0  0
 -107.1685 -177.4797  313.7275 C   0  0  0  0  0  0  0  0  0  0  0  0
 -106.0064 -177.0441  314.4412 C   0  0  0  0  0  0  0  0  0  0  0  0
 -104.8029 -177.0955  313.6235 C   0  0  0  0  0  0  0  0  0  0  0  0
 -107.6393 -176.9633  312.4826 C   0  0  0  0  0  0  0  0  0  0  0  0
 -107.1439 -176.0502  311.5717 C   0  0  0  0  0  0  0  0  0  0  0  0
 -109.1440 -178.4058  313.2775 N   0  0  0  0  0  0  0  0  0  0  0  0
 -109.6236 -177.2433  311.1087 C   0  0  0  0  0  0  0  0  0  0  0  0
 -107.8899 -175.7491  310.4522 C   0  0  0  0  0  0  0  0  0  0  0  0
 -108.8827 -177.5566  312.2359 C   0  0  0  0  0  0  0  0  0  0  0  0
 -103.8422 -177.1134  313.0918 N   0  0  0  0  0  0  0  0  0  0  0  0
 -107.2316 -174.6541  309.2720 Cl  0  0  0  0  0  0  0  0  0  0  0  0
 -109.1195 -176.3179  310.2159 C   0  0  0  0  0  0  0  0  0  0  0  0
 -108.0377 -178.9572  315.0737 H   0  0  0  0  0  0  0  0  0  0  0  0
 -106.1637 -176.0076  314.7739 H   0  0  0  0  0  0  0  0  0  0  0  0
 -105.8620 -177.7231  315.2945 H   0  0  0  0  0  0  0  0  0  0  0  0
 -106.1680 -175.5703  311.7373 H   0  0  0  0  0  0  0  0  0  0  0  0
 -109.9900 -178.9841  313.3809 H   0  0  0  0  0  0  0  0  0  0  0  0
 -110.5967 -177.7231  310.9275 H   0  0  0  0  0  0  0  0  0  0  0  0
 -109.6972 -176.0379  309.3226 H   0  0  0  0  0  0  0  0  0  0  0  0
  1  2  2  0
  1  7  1  0
  2  3  1  0
  2  5  1  0
  3  4  1  0
  4 11  3  0
  5  6  1  0
  5 10  2  0
  6  9  2  0
  7 10  1  0
  8 10  1  0
  8 13  2  0
  9 12  1  0
  9 13  1  0
  1 14  1  0
  3 15  1  0
  3 16  1  0
  6 17  1  0
  7 18  1  0
  8 19  1  0
 13 20  1  0
M  END
>  <filename_input>  (5) 
8AEM_LVF_docked.sdf

>  <pdb_id>  (5) 
8AEM_LVF

>  <pose_rank>  (5) 
4

>  <num_atoms_heavy>  (5) 
13

>  <num_torsions>  (5) 
2

>  <pose>  (5) 
[-108.10709047730535, -178.36160841837778, 314.1514461940577, -2.741033860473646, -1.8091509306931706, 0.46430781946149846, -2.1172946353877986, -1.3840182883001686]

>  <energy>  (5) 
-497.17690259939377

>  <inter_energy>  (5) 
-498.45477841933683

>  <intra_energy>  (5) 
7.995951770791465

>  <rmsd>  (5) 
4.01571

>  <sdf_rank>  (5) 
0

$$$$

     RDKit          3D

 20 21  0  0  0  0  0  0  0  0999 V2000
 -106.8424 -178.6522  313.1088 C   0  0  0  0  0  0  0  0  0  0  0  0
 -106.4479 -177.5024  312.5080 C   0  0  0  0  0  0  0  0  0  0  0  0
 -105.1627 -176.8779  312.5960 C   0  0  0  0  0  0  0  0  0  0  0  0
 -104.6856 -176.7838  313.9683 C   0  0  0  0  0  0  0  0  0  0  0  0
 -107.6099 -176.9613  311.8797 C   0  0  0  0  0  0  0  0  0  0  0  0
 -107.8556 -175.8316  311.1231 C   0  0  0  0  0  0  0  0  0  0  0  0
 -108.1729 -178.8479  312.9287 N   0  0  0  0  0  0  0  0  0  0  0  0
 -109.9587 -177.5638  311.7257 C   0  0  0  0  0  0  0  0  0  0  0  0
 -109.1388 -175.5863  310.6832 C   0  0  0  0  0  0  0  0  0  0  0  0
 -108.6735 -177.8231  312.1713 C   0  0  0  0  0  0  0  0  0  0  0  0
 -104.3367 -176.8146  315.0091 N   0  0  0  0  0  0  0  0  0  0  0  0
 -109.4313 -174.2023  309.6712 Cl  0  0  0  0  0  0  0  0  0  0  0  0
 -110.1888 -176.4226  310.9826 C   0  0  0  0  0  0  0  0  0  0  0  0
 -106.1777 -179.3306  313.6637 H   0  0  0  0  0  0  0  0  0  0  0  0
 -104.4421 -177.4679  312.0108 H   0  0  0  0  0  0  0  0  0  0  0  0
 -105.2586 -175.8550  312.2028 H   0  0  0  0  0  0  0  0  0  0  0  0
 -107.0388 -175.1377  310.8752 H   0  0  0  0  0  0  0  0  0  0  0  0
 -108.7177 -179.6387  313.3012 H   0  0  0  0  0  0  0  0  0  0  0  0
 -110.7820 -178.2547  311.9595 H   0  0  0  0  0  0  0  0  0  0  0  0
 -111.2041 -176.1843  310.6328 H   0  0  0  0  0  0  0  0  0  0  0  0
  1  2  2  0
  1  7  1  0
  2  3  1  0
  2  5  1  0
  3  4  1  0
  4 11  3  0
  5  6  1  0
  5 10  2  0
  6  9  2  0
  7 10  1  0
  8 10  1  0
  8 13  2  0
  9 12  1  0
  9 13  1  0
  1 14  1  0
  3 15  1  0
  3 16  1  0
  6 17  1  0
  7 18  1  0
  8 19  1  0
 13 20  1  0
M  END
>  <filename_input>  (6) 
8AEM_LVF_docked.sdf

>  <pdb_id>  (6) 
8AEM_LVF

>  <pose_rank>  (6) 
5

>  <num_atoms_heavy>  (6) 
13

>  <num_torsions>  (6) 
2

>  <pose>  (6) 
[-106.84243974675186, -178.6522210648374, 313.1087594843237, 2.3924553795704107, 2.2321225529511803, -1.0469954942544457, 1.0279111814524806, 2.598566218410137]

>  <energy>  (6) 
-502.67685190415517

>  <inter_energy>  (6) 
-497.86127996632024

>  <intra_energy>  (6) 
0.09955945352867847

>  <rmsd>  (6) 
4.2971

>  <sdf_rank>  (6) 
0

$$$$

     RDKit          3D

 20 21  0  0  0  0  0  0  0  0999 V2000
 -105.8170 -177.0070  310.7920 C   0  0  0  0  0  0  0  0  0  0  0  0
 -106.4710 -177.3349  311.9336 C   0  0  0  0  0  0  0  0  0  0  0  0
 -105.9413 -178.0395  313.0616 C   0  0  0  0  0  0  0  0  0  0  0  0
 -104.9024 -177.2848  313.7478 C   0  0  0  0  0  0  0  0  0  0  0  0
 -107.8341 -176.9607  311.7342 C   0  0  0  0  0  0  0  0  0  0  0  0
 -108.9740 -177.0315  312.5118 C   0  0  0  0  0  0  0  0  0  0  0  0
 -106.6810 -176.4876  309.8840 N   0  0  0  0  0  0  0  0  0  0  0  0
 -109.1419 -176.0104  309.9203 C   0  0  0  0  0  0  0  0  0  0  0  0
 -110.1713 -176.5950  311.9862 C   0  0  0  0  0  0  0  0  0  0  0  0
 -107.9325 -176.4430  310.4375 C   0  0  0  0  0  0  0  0  0  0  0  0
 -104.1933 -176.6559  314.3024 N   0  0  0  0  0  0  0  0  0  0  0  0
 -111.5901 -176.6184  312.9920 Cl  0  0  0  0  0  0  0  0  0  0  0  0
 -110.2738 -176.1016  310.7066 C   0  0  0  0  0  0  0  0  0  0  0  0
 -104.7382 -177.1429  310.6255 H   0  0  0  0  0  0  0  0  0  0  0  0
 -106.7591 -178.2393  313.7696 H   0  0  0  0  0  0  0  0  0  0  0  0
 -105.4908 -178.9730  312.6934 H   0  0  0  0  0  0  0  0  0  0  0  0
 -108.9268 -177.4306  313.5358 H   0  0  0  0  0  0  0  0  0  0  0  0
 -106.4355 -176.1774  308.9330 H   0  0  0  0  0  0  0  0  0  0  0  0
 -109.2003 -175.6011  308.9010 H   0  0  0  0  0  0  0  0  0  0  0  0
 -111.2497 -175.7821  310.3123 H   0  0  0  0  0  0  0  0  0  0  0  0
  1  2  2  0
  1  7  1  0
  2  3  1  0
  2  5  1  0
  3  4  1  0
  4 11  3  0
  5  6  1  0
  5 10  2  0
  6  9  2  0
  7 10  1  0
  8 10  1  0
  8 13  2  0
  9 12  1  0
  9 13  1  0
  1 14  1  0
  3 15  1  0
  3 16  1  0
  6 17  1  0
  7 18  1  0
  8 19  1  0
 13 20  1  0
M  END
>  <filename_input>  (7) 
8AEM_LVF_docked.sdf

>  <pdb_id>  (7) 
8AEM_LVF

>  <pose_rank>  (7) 
6

>  <num_atoms_heavy>  (7) 
13

>  <num_torsions>  (7) 
2

>  <pose>  (7) 
[-105.81695626261838, -177.00702490878388, 310.7919573820307, 0.026295511130656167, 3.1289379030927886, 2.3915807868248278, -3.2765740907225283, 2.9027996553419277]

>  <energy>  (7) 
-512.3052483582683

>  <inter_energy>  (7) 
-493.78956849077474

>  <intra_energy>  (7) 
0.0

>  <rmsd>  (7) 
4.44031

>  <sdf_rank>  (7) 
0

$$$$

     RDKit          3D

 20 21  0  0  0  0  0  0  0  0999 V2000
 -106.5246 -176.6597  310.4949 C   0  0  0  0  0  0  0  0  0  0  0  0
 -107.4001 -175.9658  309.7265 C   0  0  0  0  0  0  0  0  0  0  0  0
 -107.0908 -175.1092  308.6218 C   0  0  0  0  0  0  0  0  0  0  0  0
 -106.3015 -175.7844  307.6017 C   0  0  0  0  0  0  0  0  0  0  0  0
 -108.6848 -176.1473  310.3220 C   0  0  0  0  0  0  0  0  0  0  0  0
 -109.9577 -175.7063  310.0148 C   0  0  0  0  0  0  0  0  0  0  0  0
 -107.1662 -177.2314  311.5447 N   0  0  0  0  0  0  0  0  0  0  0  0
 -109.5600 -177.2748  312.2883 C   0  0  0  0  0  0  0  0  0  0  0  0
 -111.0042 -176.0527  310.8425 C   0  0  0  0  0  0  0  0  0  0  0  0
 -108.5006 -176.9361  311.4634 C   0  0  0  0  0  0  0  0  0  0  0  0
 -105.6432 -176.2130  306.8343 N   0  0  0  0  0  0  0  0  0  0  0  0
 -112.6153 -175.5567  310.4143 Cl  0  0  0  0  0  0  0  0  0  0  0  0
 -110.8233 -176.8135  311.9738 C   0  0  0  0  0  0  0  0  0  0  0  0
 -105.4463 -176.7468  310.2952 H   0  0  0  0  0  0  0  0  0  0  0  0
 -108.0315 -174.7626  308.1691 H   0  0  0  0  0  0  0  0  0  0  0  0
 -106.4950 -174.2679  309.0056 H   0  0  0  0  0  0  0  0  0  0  0  0
 -110.1335 -175.0877  309.1224 H   0  0  0  0  0  0  0  0  0  0  0  0
 -106.7217 -177.7958  312.2828 H   0  0  0  0  0  0  0  0  0  0  0  0
 -109.3982 -177.9002  313.1786 H   0  0  0  0  0  0  0  0  0  0  0  0
 -111.6782 -177.0530  312.6232 H   0  0  0  0  0  0  0  0  0  0  0  0
  1  2  2  0
  1  7  1  0
  2  3  1  0
  2  5  1  0
  3  4  1  0
  4 11  3  0
  5  6  1  0
  5 10  2  0
  6  9  2  0
  7 10  1  0
  8 10  1  0
  8 13  2  0
  9 12  1  0
  9 13  1  0
  1 14  1  0
  3 15  1  0
  3 16  1  0
  6 17  1  0
  7 18  1  0
  8 19  1  0
 13 20  1  0
M  END
>  <filename_input>  (8) 
8AEM_LVF_docked.sdf

>  <pdb_id>  (8) 
8AEM_LVF

>  <pose_rank>  (8) 
7

>  <num_atoms_heavy>  (8) 
13

>  <num_torsions>  (8) 
2

>  <pose>  (8) 
[-106.52455667256677, -176.65967837408388, 310.4948608935137, -0.8738936926062111, -1.6285043551023646, 2.011346595077078, 2.8229840711175997, -0.6768730972786793]

>  <energy>  (8) 
-408.3987440266707

>  <inter_energy>  (8) 
-403.63867333481346

>  <intra_energy>  (8) 
0.0

>  <rmsd>  (8) 
3.62452

>  <sdf_rank>  (8) 
0

$$$$

     RDKit          3D

 20 21  0  0  0  0  0  0  0  0999 V2000
 -105.4978 -178.1074  311.4216 C   0  0  0  0  0  0  0  0  0  0  0  0
 -106.6826 -177.8407  312.0245 C   0  0  0  0  0  0  0  0  0  0  0  0
 -107.1298 -178.3140  313.2995 C   0  0  0  0  0  0  0  0  0  0  0  0
 -106.8778 -177.3552  314.3656 C   0  0  0  0  0  0  0  0  0  0  0  0
 -107.4563 -177.1055  311.0765 C   0  0  0  0  0  0  0  0  0  0  0  0
 -108.7227 -176.5532  311.0908 C   0  0  0  0  0  0  0  0  0  0  0  0
 -105.4913 -177.6213  310.1549 N   0  0  0  0  0  0  0  0  0  0  0  0
 -107.1646 -176.3536  308.7845 C   0  0  0  0  0  0  0  0  0  0  0  0
 -109.1878 -175.9151  309.9608 C   0  0  0  0  0  0  0  0  0  0  0  0
 -106.6846 -176.9948  309.9141 C   0  0  0  0  0  0  0  0  0  0  0  0
 -106.7891 -176.6202  315.1767 N   0  0  0  0  0  0  0  0  0  0  0  0
 -110.7533 -175.1587  310.0059 Cl  0  0  0  0  0  0  0  0  0  0  0  0
 -108.4381 -175.8197  308.8118 C   0  0  0  0  0  0  0  0  0  0  0  0
 -104.6601 -178.6424  311.8929 H   0  0  0  0  0  0  0  0  0  0  0  0
 -108.2115 -178.5065  313.2455 H   0  0  0  0  0  0  0  0  0  0  0  0
 -106.5692 -179.2311  313.5329 H   0  0  0  0  0  0  0  0  0  0  0  0
 -109.3510 -176.6217  311.9912 H   0  0  0  0  0  0  0  0  0  0  0  0
 -104.7150 -177.7093  309.4837 H   0  0  0  0  0  0  0  0  0  0  0  0
 -106.5425 -176.2709  307.8811 H   0  0  0  0  0  0  0  0  0  0  0  0
 -108.8495 -175.3219  307.9214 H   0  0  0  0  0  0  0  0  0  0  0  0
  1  2  2  0
  1  7  1  0
  2  3  1  0
  2  5  1  0
  3  4  1  0
  4 11  3  0
  5  6  1  0
  5 10  2  0
  6  9  2  0
  7 10  1  0
  8 10  1  0
  8 13  2  0
  9 12  1  0
  9 13  1  0
  1 14  1  0
  3 15  1  0
  3 16  1  0
  6 17  1  0
  7 18  1  0
  8 19  1  0
 13 20  1  0
M  END
>  <filename_input>  (9) 
8AEM_LVF_docked.sdf

>  <pdb_id>  (9) 
8AEM_LVF

>  <pose_rank>  (9) 
8

>  <num_atoms_heavy>  (9) 
13

>  <num_torsions>  (9) 
2

>  <pose>  (9) 
[-105.49775666920843, -178.10742396238342, 311.42161229496304, 0.13593647438196826, 2.7216896001133795, 1.7238509253199457, 3.5301581960007162, -2.713300833742958]

>  <energy>  (9) 
-487.8516121421995

>  <inter_energy>  (9) 
-484.09158584333704

>  <intra_energy>  (9) 
0.0

>  <rmsd>  (9) 
4.9398

>  <sdf_rank>  (9) 
0

$$$$

     RDKit          3D

 20 21  0  0  0  0  0  0  0  0999 V2000
 -107.9928 -176.7064  313.0396 C   0  0  0  0  0  0  0  0  0  0  0  0
 -107.0571 -177.1649  312.1720 C   0  0  0  0  0  0  0  0  0  0  0  0
 -105.9710 -178.0518  312.4607 C   0  0  0  0  0  0  0  0  0  0  0  0
 -105.6415 -178.0805  313.8785 C   0  0  0  0  0  0  0  0  0  0  0  0
 -107.2849 -176.4797  310.9405 C   0  0  0  0  0  0  0  0  0  0  0  0
 -106.6809 -176.5090  309.6981 C   0  0  0  0  0  0  0  0  0  0  0  0
 -108.7644 -175.7606  312.4473 N   0  0  0  0  0  0  0  0  0  0  0  0
 -108.8103 -174.7626  310.1480 C   0  0  0  0  0  0  0  0  0  0  0  0
 -107.1462 -175.6709  308.7075 C   0  0  0  0  0  0  0  0  0  0  0  0
 -108.3542 -175.6014  311.1508 C   0  0  0  0  0  0  0  0  0  0  0  0
 -105.3883 -177.9999  314.9440 N   0  0  0  0  0  0  0  0  0  0  0  0
 -106.4312 -175.7612  307.1245 Cl  0  0  0  0  0  0  0  0  0  0  0  0
 -108.1856 -174.7949  308.9166 C   0  0  0  0  0  0  0  0  0  0  0  0
 -108.1098 -177.0525  314.0772 H   0  0  0  0  0  0  0  0  0  0  0  0
 -106.2494 -179.0671  312.1419 H   0  0  0  0  0  0  0  0  0  0  0  0
 -105.0865 -177.6878  311.9175 H   0  0  0  0  0  0  0  0  0  0  0  0
 -105.8406 -177.1913  309.5024 H   0  0  0  0  0  0  0  0  0  0  0  0
 -109.5337 -175.2461  312.8994 H   0  0  0  0  0  0  0  0  0  0  0  0
 -109.6555 -174.0822  310.3289 H   0  0  0  0  0  0  0  0  0  0  0  0
 -108.5169 -174.1252  308.1093 H   0  0  0  0  0  0  0  0  0  0  0  0
  1  2  2  0
  1  7  1  0
  2  3  1  0
  2  5  1  0
  3  4  1  0
  4 11  3  0
  5  6  1  0
  5 10  2  0
  6  9  2  0
  7 10  1  0
  8 10  1  0
  8 13  2  0
  9 12  1  0
  9 13  1  0
  1 14  1  0
  3 15  1  0
  3 16  1  0
  6 17  1  0
  7 18  1  0
  8 19  1  0
 13 20  1  0
M  END
>  <filename_input>  (10) 
8AEM_LVF_docked.sdf

>  <pdb_id>  (10) 
8AEM_LVF

>  <pose_rank>  (10) 
9

>  <num_atoms_heavy>  (10) 
13

>  <num_torsions>  (10) 
2

>  <pose>  (10) 
[-107.99281350615063, -176.70644273744466, 313.03960631220775, 2.9733045928765898, 0.055181781913238, -1.13120457623393, -4.784301145131985, 0.7100300569661407]

>  <energy>  (10) 
-477.70917450489696

>  <inter_energy>  (10) 
-474.08173617934

>  <intra_energy>  (10) 
1.503860889423353

>  <rmsd>  (10) 
4.60531

>  <sdf_rank>  (10) 
0

$$$$

     RDKit          3D

 20 21  0  0  0  0  0  0  0  0999 V2000
 -109.6467 -177.0239  310.3932 C   0  0  0  0  0  0  0  0  0  0  0  0
 -108.3545 -176.6159  310.3454 C   0  0  0  0  0  0  0  0  0  0  0  0
 -107.7158 -175.8889  309.2903 C   0  0  0  0  0  0  0  0  0  0  0  0
 -108.4834 -174.7225  308.8782 C   0  0  0  0  0  0  0  0  0  0  0  0
 -107.7169 -177.1742  311.4941 C   0  0  0  0  0  0  0  0  0  0  0  0
 -106.4322 -177.1234  312.0004 C   0  0  0  0  0  0  0  0  0  0  0  0
 -109.8509 -177.8238  311.4699 N   0  0  0  0  0  0  0  0  0  0  0  0
 -108.3702 -178.6330  313.3241 C   0  0  0  0  0  0  0  0  0  0  0  0
 -106.1379 -177.8230  313.1511 C   0  0  0  0  0  0  0  0  0  0  0  0
 -108.6796 -177.9325  312.1704 C   0  0  0  0  0  0  0  0  0  0  0  0
 -109.1455 -173.9022  308.5703 N   0  0  0  0  0  0  0  0  0  0  0  0
 -104.5394 -177.6993  313.8254 Cl  0  0  0  0  0  0  0  0  0  0  0  0
 -107.0777 -178.5824  313.8081 C   0  0  0  0  0  0  0  0  0  0  0  0
 -110.4202 -176.7457  309.6622 H   0  0  0  0  0  0  0  0  0  0  0  0
 -106.7268 -175.5563  309.6385 H   0  0  0  0  0  0  0  0  0  0  0  0
 -107.6322 -176.5598  308.4227 H   0  0  0  0  0  0  0  0  0  0  0  0
 -105.6554 -176.5331  311.4923 H   0  0  0  0  0  0  0  0  0  0  0  0
 -110.7421 -178.2758  311.7196 H   0  0  0  0  0  0  0  0  0  0  0  0
 -109.1406 -179.2196  313.8460 H   0  0  0  0  0  0  0  0  0  0  0  0
 -106.8020 -179.1451  314.7121 H   0  0  0  0  0  0  0  0  0  0  0  0
  1  2  2  0
  1  7  1  0
  2  3  1  0
  2  5  1  0
  3  4  1  0
  4 11  3  0
  5  6  1  0
  5 10  2  0
  6  9  2  0
  7 10  1  0
  8 10  1  0
  8 13  2  0
  9 12  1  0
  9 13  1  0
  1 14  1  0
  3 15  1  0
  3 16  1  0
  6 17  1  0
  7 18  1  0
  8 19  1  0
 13 20  1  0
M  END
>  <filename_input>  (11) 
8AEM_LVF_docked.sdf

>  <pdb_id>  (11) 
8AEM_LVF

>  <pose_rank>  (11) 
10

>  <num_atoms_heavy>  (11) 
13

>  <num_torsions>  (11) 
2

>  <pose>  (11) 
[-109.6466586153519, -177.02392386381922, 310.39315396605696, -5.099791447405208, 0.36657946198902297, -3.88801352053352, -3.5649129280392606, 0.8393246410380348]

>  <energy>  (11) 
-557.1861488903177

>  <inter_energy>  (11) 
-557.8395010522046

>  <intra_energy>  (11) 
0.07655266707916066

>  <rmsd>  (11) 
1.29448

>  <sdf_rank>  (11) 
0

$$$$

     RDKit          3D

 20 21  0  0  0  0  0  0  0  0999 V2000
 -107.5834 -175.6107  311.5329 C   0  0  0  0  0  0  0  0  0  0  0  0
 -106.7207 -176.4874  310.9621 C   0  0  0  0  0  0  0  0  0  0  0  0
 -105.8482 -177.4029  311.6331 C   0  0  0  0  0  0  0  0  0  0  0  0
 -106.4648 -177.9913  312.8134 C   0  0  0  0  0  0  0  0  0  0  0  0
 -106.7516 -176.2222  309.5598 C   0  0  0  0  0  0  0  0  0  0  0  0
 -106.1108 -176.7679  308.4639 C   0  0  0  0  0  0  0  0  0  0  0  0
 -108.1227 -174.7965  310.5911 N   0  0  0  0  0  0  0  0  0  0  0  0
 -107.8652 -174.6281  308.1031 C   0  0  0  0  0  0  0  0  0  0  0  0
 -106.3543 -176.2394  307.2142 C   0  0  0  0  0  0  0  0  0  0  0  0
 -107.6315 -175.1516  309.3635 C   0  0  0  0  0  0  0  0  0  0  0  0
 -106.9522 -178.3398  313.7338 N   0  0  0  0  0  0  0  0  0  0  0  0
 -105.6020 -176.9743  305.8289 Cl  0  0  0  0  0  0  0  0  0  0  0  0
 -107.2054 -175.1766  307.0208 C   0  0  0  0  0  0  0  0  0  0  0  0
 -107.8134 -175.5660  312.6076 H   0  0  0  0  0  0  0  0  0  0  0  0
 -105.5785 -178.2098  310.9358 H   0  0  0  0  0  0  0  0  0  0  0  0
 -104.9610 -176.8419  311.9619 H   0  0  0  0  0  0  0  0  0  0  0  0
 -105.4164 -177.6120  308.5870 H   0  0  0  0  0  0  0  0  0  0  0  0
 -108.7927 -174.0350  310.7706 H   0  0  0  0  0  0  0  0  0  0  0  0
 -108.5643 -173.7899  307.9661 H   0  0  0  0  0  0  0  0  0  0  0  0
 -107.3595 -174.7666  306.0118 H   0  0  0  0  0  0  0  0  0  0  0  0
  1  2  2  0
  1  7  1  0
  2  3  1  0
  2  5  1  0
  3  4  1  0
  4 11  3  0
  5  6  1  0
  5 10  2  0
  6  9  2  0
  7 10  1  0
  8 10  1  0
  8 13  2  0
  9 12  1  0
  9 13  1  0
  1 14  1  0
  3 15  1  0
  3 16  1  0
  6 17  1  0
  7 18  1  0
  8 19  1  0
 13 20  1  0
M  END
>  <filename_input>  (12) 
8AEM_LVF_docked.sdf

>  <pdb_id>  (12) 
8AEM_LVF

>  <pose_rank>  (12) 
11

>  <num_atoms_heavy>  (12) 
13

>  <num_torsions>  (12) 
2

>  <pose>  (12) 
[-107.58335011288275, -175.61072068230428, 311.53287908602704, 2.7612472430412978, -0.3850207793378023, -0.9250097266609797, -3.757476791019164, 0.709299622651947]

>  <energy>  (12) 
-416.49943181163815

>  <inter_energy>  (12) 
-403.40189370258787

>  <intra_energy>  (12) 
0.5686529064426625

>  <rmsd>  (12) 
5.09159

>  <sdf_rank>  (12) 
0

$$$$

     RDKit          3D

 20 21  0  0  0  0  0  0  0  0999 V2000
 -109.6433 -176.9045  310.4597 C   0  0  0  0  0  0  0  0  0  0  0  0
 -108.3074 -176.6969  310.5642 C   0  0  0  0  0  0  0  0  0  0  0  0
 -107.4421 -176.1217  309.5793 C   0  0  0  0  0  0  0  0  0  0  0  0
 -108.1234 -175.1372  308.7510 C   0  0  0  0  0  0  0  0  0  0  0  0
 -107.9063 -177.2920  311.7983 C   0  0  0  0  0  0  0  0  0  0  0  0
 -106.6995 -177.4112  312.4606 C   0  0  0  0  0  0  0  0  0  0  0  0
 -110.0963 -177.6156  311.5227 N   0  0  0  0  0  0  0  0  0  0  0  0
 -108.9919 -178.5529  313.5689 C   0  0  0  0  0  0  0  0  0  0  0  0
 -106.6571 -178.0945  313.6571 C   0  0  0  0  0  0  0  0  0  0  0  0
 -109.0486 -177.8666  312.3676 C   0  0  0  0  0  0  0  0  0  0  0  0
 -108.5517 -174.3384  308.1308 N   0  0  0  0  0  0  0  0  0  0  0  0
 -105.1515 -178.1810  314.5236 Cl  0  0  0  0  0  0  0  0  0  0  0  0
 -107.7747 -178.6744  314.2102 C   0  0  0  0  0  0  0  0  0  0  0  0
 -110.2710 -176.5469  309.6303 H   0  0  0  0  0  0  0  0  0  0  0  0
 -106.6006 -175.6318  310.0909 H   0  0  0  0  0  0  0  0  0  0  0  0
 -107.0961 -176.9326  308.9214 H   0  0  0  0  0  0  0  0  0  0  0  0
 -105.7857 -176.9672  312.0391 H   0  0  0  0  0  0  0  0  0  0  0  0
 -111.0699 -177.9175  311.6701 H   0  0  0  0  0  0  0  0  0  0  0  0
 -109.9005 -178.9937  314.0049 H   0  0  0  0  0  0  0  0  0  0  0  0
 -107.6998 -179.2308  315.1561 H   0  0  0  0  0  0  0  0  0  0  0  0
  1  2  2  0
  1  7  1  0
  2  3  1  0
  2  5  1  0
  3  4  1  0
  4 11  3  0
  5  6  1  0
  5 10  2  0
  6  9  2  0
  7 10  1  0
  8 10  1  0
  8 13  2  0
  9 12  1  0
  9 13  1  0
  1 14  1  0
  3 15  1  0
  3 16  1  0
  6 17  1  0
  7 18  1  0
  8 19  1  0
 13 20  1  0
M  END
>  <filename_input>  (13) 
8AEM_LVF_docked.sdf

>  <pdb_id>  (13) 
8AEM_LVF

>  <pose_rank>  (13) 
12

>  <num_atoms_heavy>  (13) 
13

>  <num_torsions>  (13) 
2

>  <pose>  (13) 
[-109.64325677790822, -176.90448404188243, 310.45974585439836, -3.068768351462524, -2.3710485003157284, -5.322684009321908, -3.881340641675383, -2.2224279415405954]

>  <energy>  (13) 
-542.0377219059653

>  <inter_energy>  (13) 
-547.6938771631462

>  <intra_energy>  (13) 
0.13402426876958748

>  <rmsd>  (13) 
1.17365

>  <sdf_rank>  (13) 
0

$$$$

     RDKit          3D

 20 21  0  0  0  0  0  0  0  0999 V2000
 -109.4144 -177.9330  311.1191 C   0  0  0  0  0  0  0  0  0  0  0  0
 -108.2950 -177.2482  310.7777 C   0  0  0  0  0  0  0  0  0  0  0  0
 -107.9368 -176.7702  309.4767 C   0  0  0  0  0  0  0  0  0  0  0  0
 -108.3303 -175.3841  309.2684 C   0  0  0  0  0  0  0  0  0  0  0  0
 -107.4746 -177.2168  311.9456 C   0  0  0  0  0  0  0  0  0  0  0  0
 -106.2363 -176.6772  312.2363 C   0  0  0  0  0  0  0  0  0  0  0  0
 -109.3348 -178.3594  312.4046 N   0  0  0  0  0  0  0  0  0  0  0  0
 -107.6044 -178.1100  314.2014 C   0  0  0  0  0  0  0  0  0  0  0  0
 -105.7044 -176.8611  313.4947 C   0  0  0  0  0  0  0  0  0  0  0  0
 -108.1510 -177.9300  312.9420 C   0  0  0  0  0  0  0  0  0  0  0  0
 -108.7194 -174.3643  309.1473 N   0  0  0  0  0  0  0  0  0  0  0  0
 -104.1788 -176.1199  313.8798 Cl  0  0  0  0  0  0  0  0  0  0  0  0
 -106.3594 -177.5758  314.4701 C   0  0  0  0  0  0  0  0  0  0  0  0
 -110.2667 -178.1168  310.4484 H   0  0  0  0  0  0  0  0  0  0  0  0
 -106.8461 -176.8495  309.3587 H   0  0  0  0  0  0  0  0  0  0  0  0
 -108.4675 -177.3851  308.7349 H   0  0  0  0  0  0  0  0  0  0  0  0
 -105.6827 -176.1089  311.4743 H   0  0  0  0  0  0  0  0  0  0  0  0
 -110.0487 -178.9158  312.8962 H   0  0  0  0  0  0  0  0  0  0  0  0
 -108.1522 -178.6687  314.9745 H   0  0  0  0  0  0  0  0  0  0  0  0
 -105.8953 -177.7209  315.4568 H   0  0  0  0  0  0  0  0  0  0  0  0
  1  2  2  0
  1  7  1  0
  2  3  1  0
  2  5  1  0
  3  4  1  0
  4 11  3  0
  5  6  1  0
  5 10  2  0
  6  9  2  0
  7 10  1  0
  8 10  1  0
  8 13  2  0
  9 12  1  0
  9 13  1  0
  1 14  1  0
  3 15  1  0
  3 16  1  0
  6 17  1  0
  7 18  1  0
  8 19  1  0
 13 20  1  0
M  END
>  <filename_input>  (14) 
8AEM_LVF_docked.sdf

>  <pdb_id>  (14) 
8AEM_LVF

>  <pose_rank>  (14) 
13

>  <num_atoms_heavy>  (14) 
13

>  <num_torsions>  (14) 
2

>  <pose>  (14) 
[-109.41440060899953, -177.93297487306035, 311.11905209046625, -6.1079103283041745, 0.9770787325071876, 2.7545476994792244, -2.7669355782876948, 0.7629423542730327]

>  <energy>  (14) 
-580.6828361929383

>  <inter_energy>  (14) 
-573.9869477084653

>  <intra_energy>  (14) 
0.0

>  <rmsd>  (14) 
1.54504

>  <sdf_rank>  (14) 
0

$$$$

     RDKit          3D

 20 21  0  0  0  0  0  0  0  0999 V2000
 -109.4325 -177.8017  310.7585 C   0  0  0  0  0  0  0  0  0  0  0  0
 -108.2388 -177.1904  310.5586 C   0  0  0  0  0  0  0  0  0  0  0  0
 -107.8282 -176.4527  309.4024 C   0  0  0  0  0  0  0  0  0  0  0  0
 -108.4703 -175.1487  309.3207 C   0  0  0  0  0  0  0  0  0  0  0  0
 -107.4181 -177.5434  311.6720 C   0  0  0  0  0  0  0  0  0  0  0  0
 -106.1227 -177.2410  312.0454 C   0  0  0  0  0  0  0  0  0  0  0  0
 -109.4024 -178.5373  311.8981 N   0  0  0  0  0  0  0  0  0  0  0  0
 -107.6505 -178.9420  313.6452 C   0  0  0  0  0  0  0  0  0  0  0  0
 -105.6142 -177.7896  313.2034 C   0  0  0  0  0  0  0  0  0  0  0  0
 -108.1740 -178.3951  312.4857 C   0  0  0  0  0  0  0  0  0  0  0  0
 -109.0432 -174.2127  309.2784 N   0  0  0  0  0  0  0  0  0  0  0  0
 -104.0089 -177.3503  313.7083 Cl  0  0  0  0  0  0  0  0  0  0  0  0
 -106.3491 -178.6401  313.9958 C   0  0  0  0  0  0  0  0  0  0  0  0
 -110.3024 -177.7137  310.0910 H   0  0  0  0  0  0  0  0  0  0  0  0
 -106.7385 -176.3082  309.4439 H   0  0  0  0  0  0  0  0  0  0  0  0
 -108.1240 -177.0292  308.5135 H   0  0  0  0  0  0  0  0  0  0  0  0
 -105.5058 -176.5719  311.4275 H   0  0  0  0  0  0  0  0  0  0  0  0
 -110.1776 -179.1096  312.2621 H   0  0  0  0  0  0  0  0  0  0  0  0
 -108.2604 -179.6053  314.2760 H   0  0  0  0  0  0  0  0  0  0  0  0
 -105.9039 -179.0767  314.9020 H   0  0  0  0  0  0  0  0  0  0  0  0
  1  2  2  0
  1  7  1  0
  2  3  1  0
  2  5  1  0
  3  4  1  0
  4 11  3  0
  5  6  1  0
  5 10  2  0
  6  9  2  0
  7 10  1  0
  8 10  1  0
  8 13  2  0
  9 12  1  0
  9 13  1  0
  1 14  1  0
  3 15  1  0
  3 16  1  0
  6 17  1  0
  7 18  1  0
  8 19  1  0
 13 20  1  0
M  END
>  <filename_input>  (15) 
8AEM_LVF_docked.sdf

>  <pdb_id>  (15) 
8AEM_LVF

>  <pose_rank>  (15) 
14

>  <num_atoms_heavy>  (15) 
13

>  <num_torsions>  (15) 
2

>  <pose>  (15) 
[-109.43248649192792, -177.80172054822995, 310.7584992414519, 5.018767024192706, -2.371552557211334, -2.4266826798882475, -3.136898966128037, 0.7797455001930184]

>  <energy>  (15) 
-531.109444316853

>  <inter_energy>  (15) 
-531.5029724219966

>  <intra_energy>  (15) 
0.0

>  <rmsd>  (15) 
1.60815

>  <sdf_rank>  (15) 
0

$$$$

     RDKit          3D

 20 21  0  0  0  0  0  0  0  0999 V2000
 -109.3742 -176.1435  310.7342 C   0  0  0  0  0  0  0  0  0  0  0  0
 -108.1000 -175.6805  310.7556 C   0  0  0  0  0  0  0  0  0  0  0  0
 -107.4694 -174.8389  309.7842 C   0  0  0  0  0  0  0  0  0  0  0  0
 -107.2403 -175.5263  308.5215 C   0  0  0  0  0  0  0  0  0  0  0  0
 -107.4651 -176.3101  311.8685 C   0  0  0  0  0  0  0  0  0  0  0  0
 -106.1956 -176.2512  312.4108 C   0  0  0  0  0  0  0  0  0  0  0  0
 -109.5681 -177.0417  311.7324 N   0  0  0  0  0  0  0  0  0  0  0  0
 -108.0964 -177.9481  313.5484 C   0  0  0  0  0  0  0  0  0  0  0  0
 -105.8976 -177.0356  313.5044 C   0  0  0  0  0  0  0  0  0  0  0  0
 -108.4094 -177.1630  312.4515 C   0  0  0  0  0  0  0  0  0  0  0  0
 -107.0792 -175.9541  307.5229 N   0  0  0  0  0  0  0  0  0  0  0  0
 -104.3215 -176.9058  314.2285 Cl  0  0  0  0  0  0  0  0  0  0  0  0
 -106.8185 -177.8870  314.0687 C   0  0  0  0  0  0  0  0  0  0  0  0
 -110.1422 -175.8346  310.0099 H   0  0  0  0  0  0  0  0  0  0  0  0
 -108.1143 -173.9669  309.6001 H   0  0  0  0  0  0  0  0  0  0  0  0
 -106.4904 -174.5378  310.1853 H   0  0  0  0  0  0  0  0  0  0  0  0
 -105.4336 -175.5876  311.9759 H   0  0  0  0  0  0  0  0  0  0  0  0
 -110.4445 -177.5498  311.9189 H   0  0  0  0  0  0  0  0  0  0  0  0
 -108.8524 -178.6089  313.9975 H   0  0  0  0  0  0  0  0  0  0  0  0
 -106.5394 -178.5146  314.9280 H   0  0  0  0  0  0  0  0  0  0  0  0
  1  2  2  0
  1  7  1  0
  2  3  1  0
  2  5  1  0
  3  4  1  0
  4 11  3  0
  5  6  1  0
  5 10  2  0
  6  9  2  0
  7 10  1  0
  8 10  1  0
  8 13  2  0
  9 12  1  0
  9 13  1  0
  1 14  1  0
  3 15  1  0
  3 16  1  0
  6 17  1  0
  7 18  1  0
  8 19  1  0
 13 20  1  0
M  END
>  <filename_input>  (16) 
8AEM_LVF_docked.sdf

>  <pdb_id>  (16) 
8AEM_LVF

>  <pose_rank>  (16) 
15

>  <num_atoms_heavy>  (16) 
13

>  <num_torsions>  (16) 
2

>  <pose>  (16) 
[-109.37419625485624, -176.14351369286632, 310.734231381351, 2.841899206193209, 1.8054469749235789, 5.243175705796485, -5.639764039263779, -2.069989293273863]

>  <energy>  (16) 
-601.430601105779

>  <inter_energy>  (16) 
-588.1188476997414

>  <intra_energy>  (16) 
0.0

>  <rmsd>  (16) 
0.729561

>  <sdf_rank>  (16) 
0

$$$$

     RDKit          3D

 20 21  0  0  0  0  0  0  0  0999 V2000
 -112.4161 -169.6251  317.1044 C   0  0  0  0  0  0  0  0  0  0  0  0
 -111.7842 -168.4255  317.0952 C   0  0  0  0  0  0  0  0  0  0  0  0
 -112.1035 -167.2862  316.2891 C   0  0  0  0  0  0  0  0  0  0  0  0
 -111.1521 -167.0912  315.2046 C   0  0  0  0  0  0  0  0  0  0  0  0
 -110.6487 -168.5659  317.9489 C   0  0  0  0  0  0  0  0  0  0  0  0
 -109.6340 -167.7165  318.3464 C   0  0  0  0  0  0  0  0  0  0  0  0
 -111.7370 -170.5118  317.8747 N   0  0  0  0  0  0  0  0  0  0  0  0
 -109.6457 -170.3570  319.2487 C   0  0  0  0  0  0  0  0  0  0  0  0
 -108.6479 -168.1961  319.1817 C   0  0  0  0  0  0  0  0  0  0  0  0
 -110.6438 -169.8867  318.4120 C   0  0  0  0  0  0  0  0  0  0  0  0
 -110.5146 -166.9228  314.3264 N   0  0  0  0  0  0  0  0  0  0  0  0
 -107.4123 -167.1056  319.7378 Cl  0  0  0  0  0  0  0  0  0  0  0  0
 -108.6316 -169.4980  319.6246 C   0  0  0  0  0  0  0  0  0  0  0  0
 -113.3478 -169.8480  316.5638 H   0  0  0  0  0  0  0  0  0  0  0  0
 -113.1060 -167.4274  315.8589 H   0  0  0  0  0  0  0  0  0  0  0  0
 -112.0644 -166.3964  316.9345 H   0  0  0  0  0  0  0  0  0  0  0  0
 -109.6134 -166.6722  318.0012 H   0  0  0  0  0  0  0  0  0  0  0  0
 -112.0009 -171.4952  318.0300 H   0  0  0  0  0  0  0  0  0  0  0  0
 -109.6603 -171.3966  319.6077 H   0  0  0  0  0  0  0  0  0  0  0  0
 -107.8170 -169.8526  320.2733 H   0  0  0  0  0  0  0  0  0  0  0  0
  1  2  2  0
  1  7  1  0
  2  3  1  0
  2  5  1  0
  3  4  1  0
  4 11  3  0
  5  6  1  0
  5 10  2  0
  6  9  2  0
  7 10  1  0
  8 10  1  0
  8 13  2  0
  9 12  1  0
  9 13  1  0
  1 14  1  0
  3 15  1  0
  3 16  1  0
  6 17  1  0
  7 18  1  0
  8 19  1  0
 13 20  1  0
M  END
>  <filename_input>  (17) 
8AEM_LVF_docked.sdf

>  <pdb_id>  (17) 
8AEM_LVF

>  <pose_rank>  (17) 
16

>  <num_atoms_heavy>  (17) 
13

>  <num_torsions>  (17) 
2

>  <pose>  (17) 
[-112.41612222334234, -169.62511333129243, 317.10442957444525, -1.2670990595498695, -1.3330367079407988, -5.237201610699892, 0.015075654612891587, -2.2619018481036677]

>  <energy>  (17) 
-216.6596686942593

>  <inter_energy>  (17) 
-194.66813516517715

>  <intra_energy>  (17) 
1.9513936694571619

>  <rmsd>  (17) 
10.5619

>  <sdf_rank>  (17) 
0

$$$$

     RDKit          3D

 20 21  0  0  0  0  0  0  0  0999 V2000
 -108.2540 -175.7820  313.0880 C   0  0  0  0  0  0  0  0  0  0  0  0
 -107.5757 -176.6719  312.3221 C   0  0  0  0  0  0  0  0  0  0  0  0
 -106.8305 -177.8085  312.7719 C   0  0  0  0  0  0  0  0  0  0  0  0
 -106.5886 -177.7792  314.2072 C   0  0  0  0  0  0  0  0  0  0  0  0
 -107.6347 -176.1745  310.9853 C   0  0  0  0  0  0  0  0  0  0  0  0
 -107.1480 -176.6203  309.7714 C   0  0  0  0  0  0  0  0  0  0  0  0
 -108.7013 -174.7495  312.3300 N   0  0  0  0  0  0  0  0  0  0  0  0
 -108.5474 -174.2088  309.8868 C   0  0  0  0  0  0  0  0  0  0  0  0
 -107.3659 -175.8596  308.6425 C   0  0  0  0  0  0  0  0  0  0  0  0
 -108.3377 -174.9650  311.0277 C   0  0  0  0  0  0  0  0  0  0  0  0
 -106.4003 -177.6552  315.2820 N   0  0  0  0  0  0  0  0  0  0  0  0
 -106.8149 -176.4584  307.1053 Cl  0  0  0  0  0  0  0  0  0  0  0  0
 -108.0417 -174.6626  308.6843 C   0  0  0  0  0  0  0  0  0  0  0  0
 -108.4184 -175.8831  314.1709 H   0  0  0  0  0  0  0  0  0  0  0  0
 -107.3946 -178.7205  312.5270 H   0  0  0  0  0  0  0  0  0  0  0  0
 -105.8538 -177.7915  312.2662 H   0  0  0  0  0  0  0  0  0  0  0  0
 -106.5946 -177.5687  309.7066 H   0  0  0  0  0  0  0  0  0  0  0  0
 -109.2285 -173.9358  312.6777 H   0  0  0  0  0  0  0  0  0  0  0  0
 -109.1069 -173.2631  309.9373 H   0  0  0  0  0  0  0  0  0  0  0  0
 -108.1785 -174.0711  307.7671 H   0  0  0  0  0  0  0  0  0  0  0  0
  1  2  2  0
  1  7  1  0
  2  3  1  0
  2  5  1  0
  3  4  1  0
  4 11  3  0
  5  6  1  0
  5 10  2  0
  6  9  2  0
  7 10  1  0
  8 10  1  0
  8 13  2  0
  9 12  1  0
  9 13  1  0
  1 14  1  0
  3 15  1  0
  3 16  1  0
  6 17  1  0
  7 18  1  0
  8 19  1  0
 13 20  1  0
M  END
>  <filename_input>  (18) 
8AEM_LVF_docked.sdf

>  <pdb_id>  (18) 
8AEM_LVF

>  <pose_rank>  (18) 
17

>  <num_atoms_heavy>  (18) 
13

>  <num_torsions>  (18) 
2

>  <pose>  (18) 
[-108.25399542718272, -175.7820365723334, 313.0879699839721, -20.162176869478014, 3.84340962384515, 7.918632716864598, -4.661108664618306, 1.0200905795494115]

>  <energy>  (18) 
-450.4799017650398

>  <inter_energy>  (18) 
-439.3124491166116

>  <intra_energy>  (18) 
2.201480368080798

>  <rmsd>  (18) 
4.70601

>  <sdf_rank>  (18) 
0

$$$$

     RDKit          3D

 20 21  0  0  0  0  0  0  0  0999 V2000
 -108.5671 -168.2913  315.6185 C   0  0  0  0  0  0  0  0  0  0  0  0
 -109.8130 -168.6740  315.9927 C   0  0  0  0  0  0  0  0  0  0  0  0
 -110.9940 -168.6838  315.1836 C   0  0  0  0  0  0  0  0  0  0  0  0
 -111.7486 -167.4434  315.2903 C   0  0  0  0  0  0  0  0  0  0  0  0
 -109.7460 -168.9353  317.3946 C   0  0  0  0  0  0  0  0  0  0  0  0
 -110.6635 -169.3531  318.3394 C   0  0  0  0  0  0  0  0  0  0  0  0
 -107.7384 -168.2625  316.6923 N   0  0  0  0  0  0  0  0  0  0  0  0
 -108.0463 -168.7868  319.1245 C   0  0  0  0  0  0  0  0  0  0  0  0
 -110.2623 -169.4799  319.6521 C   0  0  0  0  0  0  0  0  0  0  0  0
 -108.4360 -168.6581  317.8019 C   0  0  0  0  0  0  0  0  0  0  0  0
 -112.3553 -166.5437  315.4590 N   0  0  0  0  0  0  0  0  0  0  0  0
 -111.3997 -170.0748  320.8258 Cl  0  0  0  0  0  0  0  0  0  0  0  0
 -108.9802 -169.1920  320.0579 C   0  0  0  0  0  0  0  0  0  0  0  0
 -108.2703 -168.0398  314.5896 H   0  0  0  0  0  0  0  0  0  0  0  0
 -110.7018 -168.8306  314.1334 H   0  0  0  0  0  0  0  0  0  0  0  0
 -111.6385 -169.5009  315.5399 H   0  0  0  0  0  0  0  0  0  0  0  0
 -111.6994 -169.5814  318.0482 H   0  0  0  0  0  0  0  0  0  0  0  0
 -106.7458 -167.9876  316.6755 H   0  0  0  0  0  0  0  0  0  0  0  0
 -107.0110 -168.5700  319.4264 H   0  0  0  0  0  0  0  0  0  0  0  0
 -108.7006 -169.2838  321.1178 H   0  0  0  0  0  0  0  0  0  0  0  0
  1  2  2  0
  1  7  1  0
  2  3  1  0
  2  5  1  0
  3  4  1  0
  4 11  3  0
  5  6  1  0
  5 10  2  0
  6  9  2  0
  7 10  1  0
  8 10  1  0
  8 13  2  0
  9 12  1  0
  9 13  1  0
  1 14  1  0
  3 15  1  0
  3 16  1  0
  6 17  1  0
  7 18  1  0
  8 19  1  0
 13 20  1  0
M  END
>  <filename_input>  (19) 
8AEM_LVF_docked.sdf

>  <pdb_id>  (19) 
8AEM_LVF

>  <pose_rank>  (19) 
18

>  <num_atoms_heavy>  (19) 
13

>  <num_torsions>  (19) 
2

>  <pose>  (19) 
[-108.56714325471988, -168.29129669036558, 315.6184979297613, 0.749558114515783, -1.01967581900723, 2.6499942646977805, 0.25199202580515934, 0.2185670475676376]

>  <energy>  (19) 
-186.62632330450438

>  <inter_energy>  (19) 
-158.68846538852534

>  <intra_energy>  (19) 
0.053321292952080886

>  <rmsd>  (19) 
10.5882

>  <sdf_rank>  (19) 
0

$$$$

     RDKit          3D

 20 21  0  0  0  0  0  0  0  0999 V2000
 -112.8738 -168.3142  316.2086 C   0  0  0  0  0  0  0  0  0  0  0  0
 -111.8119 -168.5062  315.3877 C   0  0  0  0  0  0  0  0  0  0  0  0
 -111.8205 -169.1106  314.0899 C   0  0  0  0  0  0  0  0  0  0  0  0
 -112.7205 -168.4316  313.1688 C   0  0  0  0  0  0  0  0  0  0  0  0
 -110.6575 -168.1121  316.1293 C   0  0  0  0  0  0  0  0  0  0  0  0
 -109.3047 -168.0699  315.8516 C   0  0  0  0  0  0  0  0  0  0  0  0
 -112.4604 -167.8617  317.4191 N   0  0  0  0  0  0  0  0  0  0  0  0
 -110.2113 -167.3079  318.3783 C   0  0  0  0  0  0  0  0  0  0  0  0
 -108.4323 -167.6514  316.8335 C   0  0  0  0  0  0  0  0  0  0  0  0
 -111.0984 -167.7237  317.3997 C   0  0  0  0  0  0  0  0  0  0  0  0
 -113.4624 -167.9054  312.5535 N   0  0  0  0  0  0  0  0  0  0  0  0
 -106.7383 -167.5308  316.4582 Cl  0  0  0  0  0  0  0  0  0  0  0  0
 -108.8613 -167.2854  318.0878 C   0  0  0  0  0  0  0  0  0  0  0  0
 -113.9223 -168.4991  315.9323 H   0  0  0  0  0  0  0  0  0  0  0  0
 -110.8013 -169.0771  313.6775 H   0  0  0  0  0  0  0  0  0  0  0  0
 -112.1746 -170.1458  314.2037 H   0  0  0  0  0  0  0  0  0  0  0  0
 -108.9291 -168.3661  314.8610 H   0  0  0  0  0  0  0  0  0  0  0  0
 -113.0718 -167.6556  318.2220 H   0  0  0  0  0  0  0  0  0  0  0  0
 -110.5756 -167.0008  319.3697 H   0  0  0  0  0  0  0  0  0  0  0  0
 -108.1347 -166.9770  318.8539 H   0  0  0  0  0  0  0  0  0  0  0  0
  1  2  2  0
  1  7  1  0
  2  3  1  0
  2  5  1  0
  3  4  1  0
  4 11  3  0
  5  6  1  0
  5 10  2  0
  6  9  2  0
  7 10  1  0
  8 10  1  0
  8 13  2  0
  9 12  1  0
  9 13  1  0
  1 14  1  0
  3 15  1  0
  3 16  1  0
  6 17  1  0
  7 18  1  0
  8 19  1  0
 13 20  1  0
M  END
>  <filename_input>  (20) 
8AEM_LVF_docked.sdf

>  <pdb_id>  (20) 
8AEM_LVF

>  <pose_rank>  (20) 
19

>  <num_atoms_heavy>  (20) 
13

>  <num_torsions>  (20) 
2

>  <pose>  (20) 
[-112.87378052290613, -168.3141930228651, 316.20862984044936, -1.1187997635563691, 0.47163753025916705, -0.14502623976489898, 2.860863034453526, 0.9676155931441741]

>  <energy>  (20) 
-178.20841426283482

>  <inter_energy>  (20) 
-170.31409101866268

>  <intra_energy>  (20) 
0.0

>  <rmsd>  (20) 
10.4057

>  <sdf_rank>  (20) 
0

$$$$

     RDKit          3D

 20 21  0  0  0  0  0  0  0  0999 V2000
 -112.8590 -168.5881  315.4040 C   0  0  0  0  0  0  0  0  0  0  0  0
 -112.6723 -168.2036  316.6908 C   0  0  0  0  0  0  0  0  0  0  0  0
 -113.6762 -167.7904  317.6240 C   0  0  0  0  0  0  0  0  0  0  0  0
 -113.9197 -168.7900  318.6541 C   0  0  0  0  0  0  0  0  0  0  0  0
 -111.2598 -168.1586  316.8931 C   0  0  0  0  0  0  0  0  0  0  0  0
 -110.4524 -167.8474  317.9702 C   0  0  0  0  0  0  0  0  0  0  0  0
 -111.6649 -168.7523  314.7812 N   0  0  0  0  0  0  0  0  0  0  0  0
 -109.2829 -168.5207  315.5278 C   0  0  0  0  0  0  0  0  0  0  0  0
 -109.0834 -167.8765  317.8114 C   0  0  0  0  0  0  0  0  0  0  0  0
 -110.6595 -168.4979  315.6751 C   0  0  0  0  0  0  0  0  0  0  0  0
 -114.1157 -169.6119  319.3555 N   0  0  0  0  0  0  0  0  0  0  0  0
 -108.0697 -167.5546  319.1875 Cl  0  0  0  0  0  0  0  0  0  0  0  0
 -108.4913 -168.1931  316.6112 C   0  0  0  0  0  0  0  0  0  0  0  0
 -113.8400 -168.7448  314.9318 H   0  0  0  0  0  0  0  0  0  0  0  0
 -113.3479 -166.8581  318.1067 H   0  0  0  0  0  0  0  0  0  0  0  0
 -114.6139 -167.6465  317.0671 H   0  0  0  0  0  0  0  0  0  0  0  0
 -110.8958 -167.5802  318.9408 H   0  0  0  0  0  0  0  0  0  0  0  0
 -111.5357 -169.0240  313.7961 H   0  0  0  0  0  0  0  0  0  0  0  0
 -108.8276 -168.7950  314.5647 H   0  0  0  0  0  0  0  0  0  0  0  0
 -107.3955 -168.1855  316.5147 H   0  0  0  0  0  0  0  0  0  0  0  0
  1  2  2  0
  1  7  1  0
  2  3  1  0
  2  5  1  0
  3  4  1  0
  4 11  3  0
  5  6  1  0
  5 10  2  0
  6  9  2  0
  7 10  1  0
  8 10  1  0
  8 13  2  0
  9 12  1  0
  9 13  1  0
  1 14  1  0
  3 15  1  0
  3 16  1  0
  6 17  1  0
  7 18  1  0
  8 19  1  0
 13 20  1  0
M  END
>  <filename_input>  (21) 
8AEM_LVF_docked.sdf

>  <pdb_id>  (21) 
8AEM_LVF

>  <pose_rank>  (21) 
20

>  <num_atoms_heavy>  (21) 
13

>  <num_torsions>  (21) 
2

>  <pose>  (21) 
[-112.8589761137293, -168.58810139714348, 315.4040152566025, -3.1529381900150364, -0.046918871853372256, -2.6463710936407634, -2.545067963590311, 0.7056639645815876]

>  <energy>  (21) 
-173.62556656776312

>  <inter_energy>  (21) 
-162.27395384449875

>  <intra_energy>  (21) 
0.6082415397524481

>  <rmsd>  (21) 
11.0835

>  <sdf_rank>  (21) 
0

$$$$

     RDKit          3D

 20 21  0  0  0  0  0  0  0  0999 V2000
 -112.8362 -185.5847  313.8889 C   0  0  0  0  0  0  0  0  0  0  0  0
 -113.9871 -186.0467  314.4371 C   0  0  0  0  0  0  0  0  0  0  0  0
 -115.1705 -186.4581  313.7445 C   0  0  0  0  0  0  0  0  0  0  0  0
 -115.9062 -185.3317  313.1880 C   0  0  0  0  0  0  0  0  0  0  0  0
 -113.8380 -185.9124  315.8505 C   0  0  0  0  0  0  0  0  0  0  0  0
 -114.6439 -186.2043  316.9342 C   0  0  0  0  0  0  0  0  0  0  0  0
 -111.9956 -185.1408  314.8570 N   0  0  0  0  0  0  0  0  0  0  0  0
 -112.1424 -185.0425  317.3577 C   0  0  0  0  0  0  0  0  0  0  0  0
 -114.1911 -185.9127  318.2032 C   0  0  0  0  0  0  0  0  0  0  0  0
 -112.5843 -185.3330  316.0780 C   0  0  0  0  0  0  0  0  0  0  0  0
 -116.5195 -184.4849  312.8523 N   0  0  0  0  0  0  0  0  0  0  0  0
 -115.1770 -186.3471  319.5687 Cl  0  0  0  0  0  0  0  0  0  0  0  0
 -112.9669 -185.3280  318.4284 C   0  0  0  0  0  0  0  0  0  0  0  0
 -112.6152 -185.5717  312.8114 H   0  0  0  0  0  0  0  0  0  0  0  0
 -114.8837 -187.1328  312.9244 H   0  0  0  0  0  0  0  0  0  0  0  0
 -115.8261 -186.9623  314.4697 H   0  0  0  0  0  0  0  0  0  0  0  0
 -115.6328 -186.6629  316.7864 H   0  0  0  0  0  0  0  0  0  0  0  0
 -111.0659 -184.7266  314.6990 H   0  0  0  0  0  0  0  0  0  0  0  0
 -111.1519 -184.5921  317.5189 H   0  0  0  0  0  0  0  0  0  0  0  0
 -112.6468 -185.0896  319.4534 H   0  0  0  0  0  0  0  0  0  0  0  0
  1  2  2  0
  1  7  1  0
  2  3  1  0
  2  5  1  0
  3  4  1  0
  4 11  3  0
  5  6  1  0
  5 10  2  0
  6  9  2  0
  7 10  1  0
  8 10  1  0
  8 13  2  0
  9 12  1  0
  9 13  1  0
  1 14  1  0
  3 15  1  0
  3 16  1  0
  6 17  1  0
  7 18  1  0
  8 19  1  0
 13 20  1  0
M  END
>  <filename_input>  (22) 
8AEM_LVF_docked.sdf

>  <pdb_id>  (22) 
8AEM_LVF

>  <pose_rank>  (22) 
21

>  <num_atoms_heavy>  (22) 
13

>  <num_torsions>  (22) 
2

>  <pose>  (22) 
[-112.83619199436683, -185.58470898382893, 313.88885151664346, 0.8690642551556677, -0.5977386798737068, 2.813933961918325, 0.5892491173466398, -0.06889132259878365]

>  <energy>  (22) 
-153.59201552132336

>  <inter_energy>  (22) 
-131.14058910953125

>  <intra_energy>  (22) 
0.0

>  <rmsd>  (22) 
11.9946

>  <sdf_rank>  (22) 
0

$$$$

     RDKit          3D

 20 21  0  0  0  0  0  0  0  0999 V2000
 -102.2361 -184.6704  315.5707 C   0  0  0  0  0  0  0  0  0  0  0  0
 -101.1881 -184.2194  316.3034 C   0  0  0  0  0  0  0  0  0  0  0  0
 -100.1350 -183.3545  315.8648 C   0  0  0  0  0  0  0  0  0  0  0  0
  -99.3657 -183.9296  314.7708 C   0  0  0  0  0  0  0  0  0  0  0  0
 -101.2643 -184.8878  317.5625 C   0  0  0  0  0  0  0  0  0  0  0  0
 -100.5031 -184.8564  318.7152 C   0  0  0  0  0  0  0  0  0  0  0  0
 -102.9388 -185.5966  316.2701 N   0  0  0  0  0  0  0  0  0  0  0  0
 -102.7005 -186.5701  318.5681 C   0  0  0  0  0  0  0  0  0  0  0  0
 -100.8486 -185.6760  319.7684 C   0  0  0  0  0  0  0  0  0  0  0  0
 -102.3657 -185.7496  317.5040 C   0  0  0  0  0  0  0  0  0  0  0  0
  -98.7390 -184.2726  313.9367 N   0  0  0  0  0  0  0  0  0  0  0  0
  -99.9321 -185.5819  321.2436 Cl  0  0  0  0  0  0  0  0  0  0  0  0
 -101.9201 -186.5359  319.7072 C   0  0  0  0  0  0  0  0  0  0  0  0
 -102.4818 -184.3331  314.5530 H   0  0  0  0  0  0  0  0  0  0  0  0
 -100.5752 -182.4049  315.5265 H   0  0  0  0  0  0  0  0  0  0  0  0
  -99.4509 -183.2014  316.7125 H   0  0  0  0  0  0  0  0  0  0  0  0
  -99.6338 -184.1867  318.7914 H   0  0  0  0  0  0  0  0  0  0  0  0
 -103.7685 -186.1023  315.9284 H   0  0  0  0  0  0  0  0  0  0  0  0
 -103.5727 -187.2375  318.5072 H   0  0  0  0  0  0  0  0  0  0  0  0
 -102.1540 -187.1915  320.5590 H   0  0  0  0  0  0  0  0  0  0  0  0
  1  2  2  0
  1  7  1  0
  2  3  1  0
  2  5  1  0
  3  4  1  0
  4 11  3  0
  5  6  1  0
  5 10  2  0
  6  9  2  0
  7 10  1  0
  8 10  1  0
  8 13  2  0
  9 12  1  0
  9 13  1  0
  1 14  1  0
  3 15  1  0
  3 16  1  0
  6 17  1  0
  7 18  1  0
  8 19  1  0
 13 20  1  0
M  END
>  <filename_input>  (23) 
8AEM_LVF_docked.sdf

>  <pdb_id>  (23) 
8AEM_LVF

>  <pose_rank>  (23) 
22

>  <num_atoms_heavy>  (23) 
13

>  <num_torsions>  (23) 
2

>  <pose>  (23) 
[-102.23609407561557, -184.67041521666852, 315.57071148897785, -0.20424570409934578, 5.660820085719094, 0.46928345722238696, 0.7959466735047673, -1.6821371605538873]

>  <energy>  (23) 
-98.61736059795459

>  <inter_energy>  (23) 
-99.92813351227176

>  <intra_energy>  (23) 
0.0

>  <rmsd>  (23) 
12.3618

>  <sdf_rank>  (23) 
0

$$$$

     RDKit          3D

 20 21  0  0  0  0  0  0  0  0999 V2000
 -102.6896 -185.4385  314.7303 C   0  0  0  0  0  0  0  0  0  0  0  0
 -101.4440 -185.9427  314.5499 C   0  0  0  0  0  0  0  0  0  0  0  0
 -100.9021 -186.4988  313.3470 C   0  0  0  0  0  0  0  0  0  0  0  0
 -100.2823 -185.4893  312.5006 C   0  0  0  0  0  0  0  0  0  0  0  0
 -100.8214 -185.9376  315.8345 C   0  0  0  0  0  0  0  0  0  0  0  0
  -99.5774 -186.3167  316.3013 C   0  0  0  0  0  0  0  0  0  0  0  0
 -102.8992 -185.1521  316.0398 N   0  0  0  0  0  0  0  0  0  0  0  0
 -101.4775 -185.3397  318.0962 C   0  0  0  0  0  0  0  0  0  0  0  0
  -99.3044 -186.2032  317.6478 C   0  0  0  0  0  0  0  0  0  0  0  0
 -101.7634 -185.4460  316.7455 C   0  0  0  0  0  0  0  0  0  0  0  0
  -99.8052 -184.8006  311.7907 N   0  0  0  0  0  0  0  0  0  0  0  0
  -97.7144 -186.6131  318.2213 Cl  0  0  0  0  0  0  0  0  0  0  0  0
 -100.2339 -185.7364  318.5474 C   0  0  0  0  0  0  0  0  0  0  0  0
 -103.4263 -185.2834  313.9282 H   0  0  0  0  0  0  0  0  0  0  0  0
 -100.1441 -187.2496  313.6148 H   0  0  0  0  0  0  0  0  0  0  0  0
 -101.7315 -186.9484  312.7814 H   0  0  0  0  0  0  0  0  0  0  0  0
  -98.8157 -186.7035  315.6084 H   0  0  0  0  0  0  0  0  0  0  0  0
 -103.7709 -184.7749  316.4382 H   0  0  0  0  0  0  0  0  0  0  0  0
 -102.2279 -184.9460  318.7976 H   0  0  0  0  0  0  0  0  0  0  0  0
  -99.9888 -185.6794  319.6183 H   0  0  0  0  0  0  0  0  0  0  0  0
  1  2  2  0
  1  7  1  0
  2  3  1  0
  2  5  1  0
  3  4  1  0
  4 11  3  0
  5  6  1  0
  5 10  2  0
  6  9  2  0
  7 10  1  0
  8 10  1  0
  8 13  2  0
  9 12  1  0
  9 13  1  0
  1 14  1  0
  3 15  1  0
  3 16  1  0
  6 17  1  0
  7 18  1  0
  8 19  1  0
 13 20  1  0
M  END
>  <filename_input>  (24) 
8AEM_LVF_docked.sdf

>  <pdb_id>  (24) 
8AEM_LVF

>  <pose_rank>  (24) 
23

>  <num_atoms_heavy>  (24) 
13

>  <num_torsions>  (24) 
2

>  <pose>  (24) 
[-102.68963546477758, -185.43845122515046, 314.73026626944693, 4.024926764383041, -0.6391552518829614, 3.209213174676396, -2.8797217933699732, 4.888845917061498]

>  <energy>  (24) 
-90.2141401331809

>  <inter_energy>  (24) 
-84.78135404253142

>  <intra_energy>  (24) 
0.0

>  <rmsd>  (24) 
12.4186

>  <sdf_rank>  (24) 
0

$$$$

     RDKit          3D

 20 21  0  0  0  0  0  0  0  0999 V2000
 -113.9199 -186.1341  316.3072 C   0  0  0  0  0  0  0  0  0  0  0  0
 -112.7966 -185.9361  315.5739 C   0  0  0  0  0  0  0  0  0  0  0  0
 -111.4830 -185.6485  316.0651 C   0  0  0  0  0  0  0  0  0  0  0  0
 -111.4552 -185.4903  317.5121 C   0  0  0  0  0  0  0  0  0  0  0  0
 -113.2077 -185.9336  314.2069 C   0  0  0  0  0  0  0  0  0  0  0  0
 -112.5445 -185.7846  313.0039 C   0  0  0  0  0  0  0  0  0  0  0  0
 -115.0048 -186.2205  315.4971 N   0  0  0  0  0  0  0  0  0  0  0  0
 -115.3148 -186.1192  313.0114 C   0  0  0  0  0  0  0  0  0  0  0  0
 -113.2704 -185.8043  311.8322 C   0  0  0  0  0  0  0  0  0  0  0  0
 -114.5969 -186.1040  314.1954 C   0  0  0  0  0  0  0  0  0  0  0  0
 -111.4984 -185.2921  318.5913 N   0  0  0  0  0  0  0  0  0  0  0  0
 -112.4249 -185.6888  310.3166 Cl  0  0  0  0  0  0  0  0  0  0  0  0
 -114.6373 -185.9547  311.8191 C   0  0  0  0  0  0  0  0  0  0  0  0
 -113.9476 -186.2134  317.4040 H   0  0  0  0  0  0  0  0  0  0  0  0
 -110.8128 -186.4752  315.7869 H   0  0  0  0  0  0  0  0  0  0  0  0
 -111.1573 -184.6982  315.6169 H   0  0  0  0  0  0  0  0  0  0  0  0
 -111.4527 -185.6522  312.9816 H   0  0  0  0  0  0  0  0  0  0  0  0
 -115.9771 -186.3524  315.8104 H   0  0  0  0  0  0  0  0  0  0  0  0
 -116.4057 -186.2597  313.0203 H   0  0  0  0  0  0  0  0  0  0  0  0
 -115.1869 -185.9442  310.8663 H   0  0  0  0  0  0  0  0  0  0  0  0
  1  2  2  0
  1  7  1  0
  2  3  1  0
  2  5  1  0
  3  4  1  0
  4 11  3  0
  5  6  1  0
  5 10  2  0
  6  9  2  0
  7 10  1  0
  8 10  1  0
  8 13  2  0
  9 12  1  0
  9 13  1  0
  1 14  1  0
  3 15  1  0
  3 16  1  0
  6 17  1  0
  7 18  1  0
  8 19  1  0
 13 20  1  0
M  END
>  <filename_input>  (25) 
8AEM_LVF_docked.sdf

>  <pdb_id>  (25) 
8AEM_LVF

>  <pose_rank>  (25) 
24

>  <num_atoms_heavy>  (25) 
13

>  <num_torsions>  (25) 
2

>  <pose>  (25) 
[-113.91987470441606, -186.13407939466344, 316.30721175525554, -3.2407971729644096, -1.2796675138608349, 1.1107778274678433, -4.4919535056318844, 0.5401550788958563]

>  <energy>  (25) 
-141.0931685862083

>  <inter_energy>  (25) 
-119.63542737064886

>  <intra_energy>  (25) 
2.1286691415403998

>  <rmsd>  (25) 
11.8399

>  <sdf_rank>  (25) 
0

$$$$

     RDKit          3D

 20 21  0  0  0  0  0  0  0  0999 V2000
 -110.1140 -176.3490  310.6060 C   0  0  0  0  0  0  0  0  0  0  0  0
 -108.8610 -175.8310  310.6200 C   0  0  0  0  0  0  0  0  0  0  0  0
 -108.2830 -174.9400  309.6600 C   0  0  0  0  0  0  0  0  0  0  0  0
 -107.3080 -175.6030  308.8060 C   0  0  0  0  0  0  0  0  0  0  0  0
 -108.1820 -176.4580  311.7080 C   0  0  0  0  0  0  0  0  0  0  0  0
 -106.9080 -176.3560  312.2330 C   0  0  0  0  0  0  0  0  0  0  0  0
 -110.2530 -177.2780  311.5850 N   0  0  0  0  0  0  0  0  0  0  0  0
 -108.7150 -178.1610  313.3570 C   0  0  0  0  0  0  0  0  0  0  0  0
 -106.5590 -177.1520  313.3030 C   0  0  0  0  0  0  0  0  0  0  0  0
 -109.0790 -177.3650  312.2840 C   0  0  0  0  0  0  0  0  0  0  0  0
 -106.5010 -176.0740  308.2290 N   0  0  0  0  0  0  0  0  0  0  0  0
 -104.9790 -176.9700  314.0070 Cl  0  0  0  0  0  0  0  0  0  0  0  0
 -107.4330 -178.0560  313.8600 C   0  0  0  0  0  0  0  0  0  0  0  0
 -110.9060 -176.0572  309.9005 H   0  0  0  0  0  0  0  0  0  0  0  0
 -109.0858 -174.5313  309.0288 H   0  0  0  0  0  0  0  0  0  0  0  0
 -107.7606 -174.1446  310.2117 H   0  0  0  0  0  0  0  0  0  0  0  0
 -106.1825 -175.6496  311.8032 H   0  0  0  0  0  0  0  0  0  0  0  0
 -111.1034 -177.8283  311.7719 H   0  0  0  0  0  0  0  0  0  0  0  0
 -109.4344 -178.8648  313.8011 H   0  0  0  0  0  0  0  0  0  0  0  0
 -107.1135 -178.6906  314.6997 H   0  0  0  0  0  0  0  0  0  0  0  0
  1  2  2  0
  1  7  1  0
  2  3  1  0
  2  5  1  0
  3  4  1  0
  4 11  3  0
  5  6  1  0
  5 10  2  0
  6  9  2  0
  7 10  1  0
  8 10  1  0
  8 13  2  0
  9 12  1  0
  9 13  1  0
  1 14  1  0
  3 15  1  0
  3 16  1  0
  6 17  1  0
  7 18  1  0
  8 19  1  0
 13 20  1  0
M  END
>  <filename_input>  (26) 
8AEM_LVF_docked.sdf

>  <pdb_id>  (26) 
8AEM_LVF

>  <pose_rank>  (26) 
25

>  <num_atoms_heavy>  (26) 
13

>  <num_torsions>  (26) 
2

>  <pose>  (26) 
[-110.114, -176.349, 310.606, 1e-06, 1e-06, 1e-06, 0.0, 0.0]

>  <energy>  (26) 
-603.4929642684095

>  <inter_energy>  (26) 
-607.3613746659148

>  <intra_energy>  (26) 
2.163119484670928

>  <rmsd>  (26) 
0.0

>  <sdf_rank>  (26) 
0

$$$$
