
     RDKit          3D

 36 36  0  0  0  0  0  0  0  0999 V2000
   17.6385    6.8667   23.3980 C   0  0  0  0  0  0  0  0  0  0  0  0
   16.5244    5.5670   21.8575 C   0  0  0  0  0  0  0  0  0  0  0  0
   18.0722    5.7696   24.1278 C   0  0  0  0  0  0  0  0  0  0  0  0
   18.1734    3.2393   24.4355 C   0  0  0  0  0  0  0  0  0  0  0  0
   17.7033    4.4875   23.6935 C   0  0  0  0  0  0  0  0  0  0  0  0
   16.9243    4.4079   22.5260 C   0  0  0  0  0  0  0  0  0  0  0  0
   15.6601    5.5156   20.6330 C   0  0  0  0  0  0  0  0  0  0  0  0
   16.9175    6.7632   22.2787 N   0  0  0  0  0  0  0  0  0  0  0  0
   16.5491    3.2040   22.0089 O   0  0  0  0  0  0  0  0  0  0  0  0
   19.6173    2.9705   24.6769 N   0  0  0  0  0  0  0  0  0  0  0  0
   18.8878    5.9706   25.3661 C   0  0  0  0  0  0  0  0  0  0  0  0
   18.0664    5.7005   26.5404 O   0  0  0  0  0  0  0  0  0  0  0  0
   18.7833    5.6494   27.9628 P   0  0  1  0  0  0  0  0  0  0  0  0
   19.3755    4.2483   28.1287 O   0  0  0  0  0  0  0  0  0  0  0  0
   19.7575    6.7785   27.9554 O   0  0  0  0  0  0  0  0  0  0  0  0
   17.5999    5.8812   28.9056 O   0  0  0  0  0  0  0  0  0  0  0  0
   20.3127    1.7665   24.4740 C   0  0  0  0  0  0  0  0  0  0  0  0
   21.6323    1.3643   24.9057 C   0  0  0  0  0  0  0  0  0  0  0  0
   19.5657    0.7423   23.6391 C   0  0  0  0  0  0  0  0  0  0  0  0
   22.6133    0.7346   24.2944 O   0  0  0  0  0  0  0  0  0  0  0  0
   21.7802    1.6906   26.0925 O   0  0  0  0  0  0  0  0  0  0  0  0
   18.9112   -0.2662   24.4418 O   0  0  0  0  0  0  0  0  0  0  0  0
   19.7582   -1.4473   24.6104 N   0  0  0  0  0  0  0  0  0  0  0  0
   17.9016    7.8718   23.7593 H   0  0  0  0  0  0  0  0  0  0  0  0
   17.6945    3.2690   25.4253 H   0  0  0  0  0  0  0  0  0  0  0  0
   17.8986    2.4344   23.7378 H   0  0  0  0  0  0  0  0  0  0  0  0
   14.6035    5.4528   20.9324 H   0  0  0  0  0  0  0  0  0  0  0  0
   15.8181    6.4248   20.0342 H   0  0  0  0  0  0  0  0  0  0  0  0
   15.9248    4.6316   20.0342 H   0  0  0  0  0  0  0  0  0  0  0  0
   16.8181    2.3655   22.4613 H   0  0  0  0  0  0  0  0  0  0  0  0
   19.7471    5.2839   25.3543 H   0  0  0  0  0  0  0  0  0  0  0  0
   19.2480    7.0093   25.4025 H   0  0  0  0  0  0  0  0  0  0  0  0
   18.8040    1.2644   23.0414 H   0  0  0  0  0  0  0  0  0  0  0  0
   20.3041    0.2315   23.0035 H   0  0  0  0  0  0  0  0  0  0  0  0
   19.8917   -1.6335   25.6145 H   0  0  0  0  0  0  0  0  0  0  0  0
   19.3060   -2.2600   24.1676 H   0  0  0  0  0  0  0  0  0  0  0  0
  1  3  2  0
  1  8  1  0
  2  6  1  0
  2  7  1  0
  2  8  2  0
  3  5  1  0
  3 11  1  0
  4  5  1  0
  4 10  1  0
  5  6  2  0
  6  9  1  0
 10 17  2  3
 11 12  1  0
 12 13  1  0
 13 14  1  1
 13 15  2  0
 13 16  1  0
 17 18  1  0
 17 19  1  0
 18 20  2  0
 18 21  1  0
 19 22  1  0
 22 23  1  0
  1 24  1  0
  4 25  1  0
  4 26  1  0
  7 27  1  0
  7 28  1  0
  7 29  1  0
  9 30  1  0
 11 31  1  0
 11 32  1  0
 19 33  1  0
 19 34  1  0
 23 35  1  0
 23 36  1  0
M  CHG  3  14  -1  16  -1  21  -1
M  END
>  <filename_input>  (1) 
8AIE_M7L_docked.sdf

>  <pdb_id>  (1) 
8AIE_M7L

>  <pose_rank>  (1) 
0

>  <num_atoms_heavy>  (1) 
23

>  <num_torsions>  (1) 
8

>  <pose>  (1) 
[17.63850920273952, 6.866689827910956, 23.398042660382902, -5.248121158214972, 3.142324677170008, 0.2090120518201515, 6.360781554470569, 0.5222396152902328, -1.8967362408723052, 3.47662796966288, 7.363143873215543, 6.419106897678166, 0.26171093246473437, -0.2853695352397439]

>  <energy>  (1) 
-984.6193242565668

>  <inter_energy>  (1) 
-1009.5585464638259

>  <intra_energy>  (1) 
15.376664094428973

>  <rmsd>  (1) 
0.863647

>  <sdf_rank>  (1) 
0

$$$$

     RDKit          3D

 36 36  0  0  0  0  0  0  0  0999 V2000
   17.5111    7.2340   23.7378 C   0  0  0  0  0  0  0  0  0  0  0  0
   16.5410    5.9387   22.0993 C   0  0  0  0  0  0  0  0  0  0  0  0
   18.1098    6.1454   24.3548 C   0  0  0  0  0  0  0  0  0  0  0  0
   18.5619    3.6357   24.4223 C   0  0  0  0  0  0  0  0  0  0  0  0
   17.9063    4.8695   23.8078 C   0  0  0  0  0  0  0  0  0  0  0  0
   17.1130    4.7897   22.6500 C   0  0  0  0  0  0  0  0  0  0  0  0
   15.6579    5.8801   20.8887 C   0  0  0  0  0  0  0  0  0  0  0  0
   16.7798    7.1343   22.6248 N   0  0  0  0  0  0  0  0  0  0  0  0
   16.8903    3.5976   22.0281 O   0  0  0  0  0  0  0  0  0  0  0  0
   18.1455    2.2581   24.0425 N   0  0  0  0  0  0  0  0  0  0  0  0
   18.9249    6.3435   25.5939 C   0  0  0  0  0  0  0  0  0  0  0  0
   18.9199    5.1167   26.3823 O   0  0  0  0  0  0  0  0  0  0  0  0
   18.5421    5.2182   27.9272 P   0  0  1  0  0  0  0  0  0  0  0  0
   17.7929    3.9377   28.3019 O   0  0  0  0  0  0  0  0  0  0  0  0
   19.8329    5.4559   28.6351 O   0  0  0  0  0  0  0  0  0  0  0  0
   17.6186    6.4389   27.9324 O   0  0  0  0  0  0  0  0  0  0  0  0
   18.8541    1.0610   24.2407 C   0  0  0  0  0  0  0  0  0  0  0  0
   18.6329   -0.2585   23.6935 C   0  0  0  0  0  0  0  0  0  0  0  0
   20.0157    1.1717   25.2116 C   0  0  0  0  0  0  0  0  0  0  0  0
   17.7476   -1.1947   23.9626 O   0  0  0  0  0  0  0  0  0  0  0  0
   19.4947   -0.4820   22.8309 O   0  0  0  0  0  0  0  0  0  0  0  0
   21.2556    1.5359   24.5637 O   0  0  0  0  0  0  0  0  0  0  0  0
   22.4139    1.0770   25.3308 N   0  0  0  0  0  0  0  0  0  0  0  0
   17.6454    8.2288   24.1876 H   0  0  0  0  0  0  0  0  0  0  0  0
   19.6352    3.7089   24.1926 H   0  0  0  0  0  0  0  0  0  0  0  0
   18.2392    3.6971   25.4720 H   0  0  0  0  0  0  0  0  0  0  0  0
   14.6066    5.8105   21.2048 H   0  0  0  0  0  0  0  0  0  0  0  0
   15.8002    6.7897   20.2866 H   0  0  0  0  0  0  0  0  0  0  0  0
   15.9190    4.9973   20.2866 H   0  0  0  0  0  0  0  0  0  0  0  0
   17.2831    2.7666   22.3957 H   0  0  0  0  0  0  0  0  0  0  0  0
   19.9588    6.5960   25.3158 H   0  0  0  0  0  0  0  0  0  0  0  0
   18.4938    7.1623   26.1885 H   0  0  0  0  0  0  0  0  0  0  0  0
   19.7737    1.9379   25.9630 H   0  0  0  0  0  0  0  0  0  0  0  0
   20.1598    0.1819   25.6693 H   0  0  0  0  0  0  0  0  0  0  0  0
   22.2124    1.1568   26.3377 H   0  0  0  0  0  0  0  0  0  0  0  0
   22.6126    0.0936   25.0973 H   0  0  0  0  0  0  0  0  0  0  0  0
  1  3  2  0
  1  8  1  0
  2  6  1  0
  2  7  1  0
  2  8  2  0
  3  5  1  0
  3 11  1  0
  4  5  1  0
  4 10  1  0
  5  6  2  0
  6  9  1  0
 10 17  2  3
 11 12  1  0
 12 13  1  0
 13 14  1  1
 13 15  2  0
 13 16  1  0
 17 18  1  0
 17 19  1  0
 18 20  2  0
 18 21  1  0
 19 22  1  0
 22 23  1  0
  1 24  1  0
  4 25  1  0
  4 26  1  0
  7 27  1  0
  7 28  1  0
  7 29  1  0
  9 30  1  0
 11 31  1  0
 11 32  1  0
 19 33  1  0
 19 34  1  0
 23 35  1  0
 23 36  1  0
M  CHG  3  14  -1  16  -1  21  -1
M  END
>  <filename_input>  (2) 
8AIE_M7L_docked.sdf

>  <pdb_id>  (2) 
8AIE_M7L

>  <pose_rank>  (2) 
1

>  <num_atoms_heavy>  (2) 
23

>  <num_torsions>  (2) 
8

>  <pose>  (2) 
[17.5111249613437, 7.234015746915998, 23.737773697343716, -5.210849346505231, 1.138506273468095, -2.7680005842110136, -2.316569196623686, -0.6044261315722032, -0.8291387558767055, -2.6404206611292693, 0.012232176593744079, 0.9666308932716209, 1.29949500790092, -2.573712900792111]

>  <energy>  (2) 
-909.7392331273677

>  <inter_energy>  (2) 
-959.4449026239433

>  <intra_energy>  (2) 
58.4927139293676

>  <rmsd>  (2) 
2.29096

>  <sdf_rank>  (2) 
0

$$$$

     RDKit          3D

 36 36  0  0  0  0  0  0  0  0999 V2000
   17.2918    5.8259   23.6521 C   0  0  0  0  0  0  0  0  0  0  0  0
   16.3648    5.1486   21.6557 C   0  0  0  0  0  0  0  0  0  0  0  0
   17.5854    4.5289   24.0467 C   0  0  0  0  0  0  0  0  0  0  0  0
   17.5650    2.0264   23.5517 C   0  0  0  0  0  0  0  0  0  0  0  0
   17.2418    3.4732   23.1887 C   0  0  0  0  0  0  0  0  0  0  0  0
   16.6316    3.8140   21.9690 C   0  0  0  0  0  0  0  0  0  0  0  0
   15.6790    5.5399   20.3807 C   0  0  0  0  0  0  0  0  0  0  0  0
   16.7315    6.1249   22.4772 N   0  0  0  0  0  0  0  0  0  0  0  0
   16.2957    2.8586   21.0570 O   0  0  0  0  0  0  0  0  0  0  0  0
   18.8083    1.3602   23.0767 N   0  0  0  0  0  0  0  0  0  0  0  0
   18.2257    4.2787   25.3758 C   0  0  0  0  0  0  0  0  0  0  0  0
   18.7412    5.5327   25.9127 O   0  0  0  0  0  0  0  0  0  0  0  0
   18.5418    5.8227   27.4670 P   0  0  1  0  0  0  0  0  0  0  0  0
   17.0555    6.1069   27.6942 O   0  0  0  0  0  0  0  0  0  0  0  0
   19.0974    4.6286   28.1665 O   0  0  0  0  0  0  0  0  0  0  0  0
   19.3952    7.0799   27.6513 O   0  0  0  0  0  0  0  0  0  0  0  0
   19.7383    0.6330   23.8388 C   0  0  0  0  0  0  0  0  0  0  0  0
   21.0671    0.1734   23.5033 C   0  0  0  0  0  0  0  0  0  0  0  0
   19.2492    0.2425   25.2217 C   0  0  0  0  0  0  0  0  0  0  0  0
   21.5014   -0.8435   22.7893 O   0  0  0  0  0  0  0  0  0  0  0  0
   21.8956    0.9177   24.0477 O   0  0  0  0  0  0  0  0  0  0  0  0
   19.4040    1.3032   26.1916 O   0  0  0  0  0  0  0  0  0  0  0  0
   20.7884    1.4069   26.6535 N   0  0  0  0  0  0  0  0  0  0  0  0
   17.5325    6.6489   24.3410 H   0  0  0  0  0  0  0  0  0  0  0  0
   17.5903    1.9813   24.6505 H   0  0  0  0  0  0  0  0  0  0  0  0
   16.7817    1.4698   23.0164 H   0  0  0  0  0  0  0  0  0  0  0  0
   14.7455    6.0726   20.6149 H   0  0  0  0  0  0  0  0  0  0  0  0
   16.3394    6.1972   19.7959 H   0  0  0  0  0  0  0  0  0  0  0  0
   15.4492    4.6370   19.7959 H   0  0  0  0  0  0  0  0  0  0  0  0
   16.4729    1.9042   21.2517 H   0  0  0  0  0  0  0  0  0  0  0  0
   17.4800    3.8624   26.0691 H   0  0  0  0  0  0  0  0  0  0  0  0
   19.0536    3.5647   25.2546 H   0  0  0  0  0  0  0  0  0  0  0  0
   18.1832   -0.0207   25.1560 H   0  0  0  0  0  0  0  0  0  0  0  0
   19.8596   -0.6074   25.5607 H   0  0  0  0  0  0  0  0  0  0  0  0
   20.8076    1.4083   27.6833 H   0  0  0  0  0  0  0  0  0  0  0  0
   21.3289    0.6040   26.3011 H   0  0  0  0  0  0  0  0  0  0  0  0
  1  3  2  0
  1  8  1  0
  2  6  1  0
  2  7  1  0
  2  8  2  0
  3  5  1  0
  3 11  1  0
  4  5  1  0
  4 10  1  0
  5  6  2  0
  6  9  1  0
 10 17  2  3
 11 12  1  0
 12 13  1  0
 13 14  1  6
 13 15  2  0
 13 16  1  0
 17 18  1  0
 17 19  1  0
 18 20  2  0
 18 21  1  0
 19 22  1  0
 22 23  1  0
  1 24  1  0
  4 25  1  0
  4 26  1  0
  7 27  1  0
  7 28  1  0
  7 29  1  0
  9 30  1  0
 11 31  1  0
 11 32  1  0
 19 33  1  0
 19 34  1  0
 23 35  1  0
 23 36  1  0
M  CHG  3  14  -1  16  -1  21  -1
M  END
>  <filename_input>  (3) 
8AIE_M7L_docked.sdf

>  <pdb_id>  (3) 
8AIE_M7L

>  <pose_rank>  (3) 
2

>  <num_atoms_heavy>  (3) 
23

>  <num_torsions>  (3) 
8

>  <pose>  (3) 
[17.29183916174792, 5.825859813548837, 23.65206245625703, 0.4555322895219749, -0.22042036884719277, -0.06240897527329019, 5.684022618842468, 11.412285982644741, -0.8810235714963464, 10.045240925106224, 1.3518010054992364, -1.9634160866027435, -0.30891996589929926, -0.08034627777567822]

>  <energy>  (3) 
-771.7362494970916

>  <inter_energy>  (3) 
-793.0353833121279

>  <intra_energy>  (3) 
20.232555751706705

>  <rmsd>  (3) 
1.82549

>  <sdf_rank>  (3) 
0

$$$$

     RDKit          3D

 36 36  0  0  0  0  0  0  0  0999 V2000
   16.9619    2.7390   22.8264 C   0  0  0  0  0  0  0  0  0  0  0  0
   16.1721    4.6370   21.7883 C   0  0  0  0  0  0  0  0  0  0  0  0
   17.7807    3.4549   23.6873 C   0  0  0  0  0  0  0  0  0  0  0  0
   18.6536    5.7004   24.5260 C   0  0  0  0  0  0  0  0  0  0  0  0
   17.7971    4.8543   23.5879 C   0  0  0  0  0  0  0  0  0  0  0  0
   16.9590    5.4360   22.6207 C   0  0  0  0  0  0  0  0  0  0  0  0
   15.2989    5.2263   20.7210 C   0  0  0  0  0  0  0  0  0  0  0  0
   16.1576    3.3170   21.9306 N   0  0  0  0  0  0  0  0  0  0  0  0
   16.8814    6.7890   22.4762 O   0  0  0  0  0  0  0  0  0  0  0  0
   18.0502    6.5053   25.6230 N   0  0  0  0  0  0  0  0  0  0  0  0
   18.6443    2.7314   24.6721 C   0  0  0  0  0  0  0  0  0  0  0  0
   18.2601    1.3253   24.7172 O   0  0  0  0  0  0  0  0  0  0  0  0
   19.3861    0.2495   25.0553 P   0  0  1  0  0  0  0  0  0  0  0  0
   20.6321    0.6194   24.2479 O   0  0  0  0  0  0  0  0  0  0  0  0
   19.5307    0.2815   26.5393 O   0  0  0  0  0  0  0  0  0  0  0  0
   18.7375   -1.0381   24.5411 O   0  0  0  0  0  0  0  0  0  0  0  0
   18.2106    6.3272   27.0076 C   0  0  0  0  0  0  0  0  0  0  0  0
   17.4805    6.9012   28.1153 C   0  0  0  0  0  0  0  0  0  0  0  0
   19.3569    5.4106   27.3947 C   0  0  0  0  0  0  0  0  0  0  0  0
   16.8897    8.0657   28.2815 O   0  0  0  0  0  0  0  0  0  0  0  0
   17.4750    6.0897   29.0524 O   0  0  0  0  0  0  0  0  0  0  0  0
   20.4351    6.1097   28.0569 O   0  0  0  0  0  0  0  0  0  0  0  0
   21.6488    6.1165   27.2397 N   0  0  0  0  0  0  0  0  0  0  0  0
   16.9758    1.6406   22.8844 H   0  0  0  0  0  0  0  0  0  0  0  0
   19.3640    5.0096   25.0038 H   0  0  0  0  0  0  0  0  0  0  0  0
   19.0423    6.4776   23.8516 H   0  0  0  0  0  0  0  0  0  0  0  0
   14.4735    5.7832   21.1886 H   0  0  0  0  0  0  0  0  0  0  0  0
   15.8937    5.9084   20.0958 H   0  0  0  0  0  0  0  0  0  0  0  0
   14.8888    4.4194   20.0958 H   0  0  0  0  0  0  0  0  0  0  0  0
   17.4277    7.3804   23.0523 H   0  0  0  0  0  0  0  0  0  0  0  0
   19.6975    2.8137   24.3657 H   0  0  0  0  0  0  0  0  0  0  0  0
   18.5156    3.1780   25.6691 H   0  0  0  0  0  0  0  0  0  0  0  0
   18.9726    4.6345   28.0729 H   0  0  0  0  0  0  0  0  0  0  0  0
   19.7626    4.9787   26.4679 H   0  0  0  0  0  0  0  0  0  0  0  0
   22.4759    6.1212   27.8535 H   0  0  0  0  0  0  0  0  0  0  0  0
   21.6671    5.2756   26.6452 H   0  0  0  0  0  0  0  0  0  0  0  0
  1  3  2  0
  1  8  1  0
  2  6  1  0
  2  7  1  0
  2  8  2  0
  3  5  1  0
  3 11  1  0
  4  5  1  0
  4 10  1  0
  5  6  2  0
  6  9  1  0
 10 17  2  3
 11 12  1  0
 12 13  1  0
 13 14  1  6
 13 15  2  0
 13 16  1  0
 17 18  1  0
 17 19  1  0
 18 20  2  0
 18 21  1  0
 19 22  1  0
 22 23  1  0
  1 24  1  0
  4 25  1  0
  4 26  1  0
  7 27  1  0
  7 28  1  0
  7 29  1  0
  9 30  1  0
 11 31  1  0
 11 32  1  0
 19 33  1  0
 19 34  1  0
 23 35  1  0
 23 36  1  0
M  CHG  3  14  -1  16  -1  21  -1
M  END
>  <filename_input>  (4) 
8AIE_M7L_docked.sdf

>  <pdb_id>  (4) 
8AIE_M7L

>  <pose_rank>  (4) 
3

>  <num_atoms_heavy>  (4) 
23

>  <num_torsions>  (4) 
8

>  <pose>  (4) 
[16.961905242863775, 2.7389682637207993, 22.82639403230326, -1.9377402953598897, 0.392096280056614, -2.3611646550996106, -0.8160900793557306, -1.4373872194887671, -0.07593209716010778, 0.878538125210919, 0.7370505021211673, -1.9104991186209892, -6.404006715696974, 0.3955640701226144]

>  <energy>  (4) 
-579.4026918718215

>  <inter_energy>  (4) 
-573.4296760947979

>  <intra_energy>  (4) 
2.816052982549174

>  <rmsd>  (4) 
5.3379

>  <sdf_rank>  (4) 
0

$$$$

     RDKit          3D

 36 36  0  0  0  0  0  0  0  0999 V2000
   20.0918    1.9511   26.0657 C   0  0  0  0  0  0  0  0  0  0  0  0
   19.2357    0.2891   24.7209 C   0  0  0  0  0  0  0  0  0  0  0  0
   19.3510    2.9453   25.4438 C   0  0  0  0  0  0  0  0  0  0  0  0
   17.6355    3.6278   23.6833 C   0  0  0  0  0  0  0  0  0  0  0  0
   18.4993    2.5855   24.3884 C   0  0  0  0  0  0  0  0  0  0  0  0
   18.4473    1.2232   24.0454 C   0  0  0  0  0  0  0  0  0  0  0  0
   19.2317   -1.1642   24.3512 C   0  0  0  0  0  0  0  0  0  0  0  0
   20.0075    0.6598   25.7356 N   0  0  0  0  0  0  0  0  0  0  0  0
   17.6218    0.7754   23.0577 O   0  0  0  0  0  0  0  0  0  0  0  0
   17.0892    4.8087   24.4060 N   0  0  0  0  0  0  0  0  0  0  0  0
   19.4943    4.3690   25.8815 C   0  0  0  0  0  0  0  0  0  0  0  0
   18.4621    4.6840   26.8623 O   0  0  0  0  0  0  0  0  0  0  0  0
   18.8383    5.6665   28.0594 P   0  0  1  0  0  0  0  0  0  0  0  0
   17.5371    6.0416   28.7719 O   0  0  0  0  0  0  0  0  0  0  0  0
   19.8455    4.9287   28.8749 O   0  0  0  0  0  0  0  0  0  0  0  0
   19.4326    6.8547   27.2991 O   0  0  0  0  0  0  0  0  0  0  0  0
   17.0490    6.1425   23.9655 C   0  0  0  0  0  0  0  0  0  0  0  0
   16.7638    7.3592   24.6919 C   0  0  0  0  0  0  0  0  0  0  0  0
   17.3158    6.3227   22.4821 C   0  0  0  0  0  0  0  0  0  0  0  0
   16.3954    8.5611   24.3015 O   0  0  0  0  0  0  0  0  0  0  0  0
   16.9458    7.1538   25.9008 O   0  0  0  0  0  0  0  0  0  0  0  0
   16.1695    5.9997   21.6627 O   0  0  0  0  0  0  0  0  0  0  0  0
   16.5758    5.4985   20.3495 N   0  0  0  0  0  0  0  0  0  0  0  0
   20.7831    2.2407   26.8708 H   0  0  0  0  0  0  0  0  0  0  0  0
   18.2427    4.0247   22.8564 H   0  0  0  0  0  0  0  0  0  0  0  0
   16.7258    3.0567   23.4461 H   0  0  0  0  0  0  0  0  0  0  0  0
   19.2300   -1.7752   25.2659 H   0  0  0  0  0  0  0  0  0  0  0  0
   18.3329   -1.3892   23.7582 H   0  0  0  0  0  0  0  0  0  0  0  0
   20.1292   -1.3942   23.7582 H   0  0  0  0  0  0  0  0  0  0  0  0
   17.0512    1.4146   22.5617 H   0  0  0  0  0  0  0  0  0  0  0  0
   20.4863    4.5151   26.3338 H   0  0  0  0  0  0  0  0  0  0  0  0
   19.3861    5.0323   25.0107 H   0  0  0  0  0  0  0  0  0  0  0  0
   17.5936    7.3714   22.3000 H   0  0  0  0  0  0  0  0  0  0  0  0
   18.1256    5.6317   22.2053 H   0  0  0  0  0  0  0  0  0  0  0  0
   17.2200    4.7037   20.4697 H   0  0  0  0  0  0  0  0  0  0  0  0
   15.7434    5.1898   19.8273 H   0  0  0  0  0  0  0  0  0  0  0  0
  1  3  2  0
  1  8  1  0
  2  6  1  0
  2  7  1  0
  2  8  2  0
  3  5  1  0
  3 11  1  0
  4  5  1  0
  4 10  1  0
  5  6  2  0
  6  9  1  0
 10 17  2  3
 11 12  1  0
 12 13  1  0
 13 14  1  1
 13 15  2  0
 13 16  1  0
 17 18  1  0
 17 19  1  0
 18 20  2  0
 18 21  1  0
 19 22  1  0
 22 23  1  0
  1 24  1  0
  4 25  1  0
  4 26  1  0
  7 27  1  0
  7 28  1  0
  7 29  1  0
  9 30  1  0
 11 31  1  0
 11 32  1  0
 19 33  1  0
 19 34  1  0
 23 35  1  0
 23 36  1  0
M  CHG  3  14  -1  16  -1  21  -1
M  END
>  <filename_input>  (5) 
8AIE_M7L_docked.sdf

>  <pdb_id>  (5) 
8AIE_M7L

>  <pose_rank>  (5) 
4

>  <num_atoms_heavy>  (5) 
23

>  <num_torsions>  (5) 
8

>  <pose>  (5) 
[20.091823907318982, 1.9511256344288312, 26.065727973378056, 1.529877522722847, 2.3457689047906487, 1.8770517054649674, 0.487008270083937, -1.0528611789893763, 3.966964691246792, -5.99592177003792, 0.09559511776577097, -3.3659676099657267, -0.21918785256174375, -2.1661607355506414]

>  <energy>  (5) 
-698.7605816894668

>  <inter_energy>  (5) 
-764.4144565557358

>  <intra_energy>  (5) 
62.216116977097315

>  <rmsd>  (5) 
5.26809

>  <sdf_rank>  (5) 
0

$$$$

     RDKit          3D

 36 36  0  0  0  0  0  0  0  0999 V2000
   17.5732    1.4856   22.8187 C   0  0  0  0  0  0  0  0  0  0  0  0
   16.5631    3.5500   22.6713 C   0  0  0  0  0  0  0  0  0  0  0  0
   18.4607    1.9019   23.8001 C   0  0  0  0  0  0  0  0  0  0  0  0
   19.3239    3.7430   25.3406 C   0  0  0  0  0  0  0  0  0  0  0  0
   18.3953    3.2319   24.2423 C   0  0  0  0  0  0  0  0  0  0  0  0
   17.4113    4.0507   23.6615 C   0  0  0  0  0  0  0  0  0  0  0  0
   15.5309    4.4100   22.0050 C   0  0  0  0  0  0  0  0  0  0  0  0
   16.6320    2.2776   22.2986 N   0  0  0  0  0  0  0  0  0  0  0  0
   17.2494    5.3457   24.0540 O   0  0  0  0  0  0  0  0  0  0  0  0
   19.8038    5.1517   25.3658 N   0  0  0  0  0  0  0  0  0  0  0  0
   19.4792    0.9480   24.3403 C   0  0  0  0  0  0  0  0  0  0  0  0
   19.5657   -0.2181   23.4690 O   0  0  0  0  0  0  0  0  0  0  0  0
   20.6776   -1.3140   23.7892 P   0  0  1  0  0  0  0  0  0  0  0  0
   20.6489   -2.3421   22.6562 O   0  0  0  0  0  0  0  0  0  0  0  0
   21.9487   -0.5515   23.9532 O   0  0  0  0  0  0  0  0  0  0  0  0
   20.1537   -1.9009   25.1022 O   0  0  0  0  0  0  0  0  0  0  0  0
   19.1133    6.2864   25.8241 C   0  0  0  0  0  0  0  0  0  0  0  0
   19.4100    7.6916   25.6597 C   0  0  0  0  0  0  0  0  0  0  0  0
   17.8782    5.9790   26.6512 C   0  0  0  0  0  0  0  0  0  0  0  0
   19.9034    8.5968   26.4781 O   0  0  0  0  0  0  0  0  0  0  0  0
   19.0896    8.0352   24.5126 O   0  0  0  0  0  0  0  0  0  0  0  0
   18.1956    5.5420   27.9921 O   0  0  0  0  0  0  0  0  0  0  0  0
   18.5034    4.1121   28.0291 N   0  0  0  0  0  0  0  0  0  0  0  0
   17.6483    0.4517   22.4506 H   0  0  0  0  0  0  0  0  0  0  0  0
   18.7974    3.5784   26.2923 H   0  0  0  0  0  0  0  0  0  0  0  0
   20.2501    3.1833   25.1437 H   0  0  0  0  0  0  0  0  0  0  0  0
   14.9245    4.9152   22.7712 H   0  0  0  0  0  0  0  0  0  0  0  0
   16.0304    5.1628   21.3776 H   0  0  0  0  0  0  0  0  0  0  0  0
   14.8807    3.7827   21.3776 H   0  0  0  0  0  0  0  0  0  0  0  0
   17.8361    5.7279   24.7539 H   0  0  0  0  0  0  0  0  0  0  0  0
   20.4593    1.4453   24.3852 H   0  0  0  0  0  0  0  0  0  0  0  0
   19.1823    0.6290   25.3503 H   0  0  0  0  0  0  0  0  0  0  0  0
   17.2625    6.8884   26.7146 H   0  0  0  0  0  0  0  0  0  0  0  0
   17.3427    5.1571   26.1534 H   0  0  0  0  0  0  0  0  0  0  0  0
   18.5704    3.8005   29.0085 H   0  0  0  0  0  0  0  0  0  0  0  0
   17.7560    3.5876   27.5524 H   0  0  0  0  0  0  0  0  0  0  0  0
  1  3  2  0
  1  8  1  0
  2  6  1  0
  2  7  1  0
  2  8  2  0
  3  5  1  0
  3 11  1  0
  4  5  1  0
  4 10  1  0
  5  6  2  0
  6  9  1  0
 10 17  2  3
 11 12  1  0
 12 13  1  0
 13 14  1  6
 13 15  2  0
 13 16  1  0
 17 18  1  0
 17 19  1  0
 18 20  2  0
 18 21  1  0
 19 22  1  0
 22 23  1  0
  1 24  1  0
  4 25  1  0
  4 26  1  0
  7 27  1  0
  7 28  1  0
  7 29  1  0
  9 30  1  0
 11 31  1  0
 11 32  1  0
 19 33  1  0
 19 34  1  0
 23 35  1  0
 23 36  1  0
M  CHG  3  14  -1  16  -1  21  -1
M  END
>  <filename_input>  (6) 
8AIE_M7L_docked.sdf

>  <pdb_id>  (6) 
8AIE_M7L

>  <pose_rank>  (6) 
5

>  <num_atoms_heavy>  (6) 
23

>  <num_torsions>  (6) 
8

>  <pose>  (6) 
[17.573155156666882, 1.485584083552882, 22.81872681182447, 2.335384233306588, -0.889977651843914, 2.4334438148450848, 3.6276715138906304, -2.0350829994760393, 4.954184996006237, 0.24094254216711178, 1.2620090480121404, -1.4708834195377685, 0.32587521973545125, -1.8783047321940025]

>  <energy>  (6) 
-565.3264232225408

>  <inter_energy>  (6) 
-644.4372398275915

>  <intra_energy>  (6) 
89.8406207623792

>  <rmsd>  (6) 
5.77069

>  <sdf_rank>  (6) 
0

$$$$

     RDKit          3D

 36 36  0  0  0  0  0  0  0  0999 V2000
   15.8611    6.6504   22.8363 C   0  0  0  0  0  0  0  0  0  0  0  0
   15.4062    4.9355   21.3681 C   0  0  0  0  0  0  0  0  0  0  0  0
   16.5673    5.8281   23.7018 C   0  0  0  0  0  0  0  0  0  0  0  0
   17.4875    3.5186   24.2741 C   0  0  0  0  0  0  0  0  0  0  0  0
   16.6973    4.4689   23.3785 C   0  0  0  0  0  0  0  0  0  0  0  0
   16.1078    4.0388   22.1770 C   0  0  0  0  0  0  0  0  0  0  0  0
   14.7329    4.4980   20.1016 C   0  0  0  0  0  0  0  0  0  0  0  0
   15.3293    6.2215   21.6888 N   0  0  0  0  0  0  0  0  0  0  0  0
   16.2134    2.7446   21.7631 O   0  0  0  0  0  0  0  0  0  0  0  0
   17.0097    3.1472   25.6339 N   0  0  0  0  0  0  0  0  0  0  0  0
   17.1433    6.3896   24.9636 C   0  0  0  0  0  0  0  0  0  0  0  0
   17.6681    7.7259   24.7077 O   0  0  0  0  0  0  0  0  0  0  0  0
   17.7320    8.7534   25.9243 P   0  0  1  0  0  0  0  0  0  0  0  0
   19.1940    9.1708   26.0966 O   0  0  0  0  0  0  0  0  0  0  0  0
   16.7745    9.8415   25.5735 O   0  0  0  0  0  0  0  0  0  0  0  0
   17.2506    7.8782   27.0841 O   0  0  0  0  0  0  0  0  0  0  0  0
   17.1583    1.9132   26.2894 C   0  0  0  0  0  0  0  0  0  0  0  0
   16.5238    1.4070   27.4856 C   0  0  0  0  0  0  0  0  0  0  0  0
   18.1736    0.9816   25.6527 C   0  0  0  0  0  0  0  0  0  0  0  0
   15.9752    0.2465   27.7768 O   0  0  0  0  0  0  0  0  0  0  0  0
   16.5152    2.3032   28.3420 O   0  0  0  0  0  0  0  0  0  0  0  0
   19.5381    1.3374   25.9708 O   0  0  0  0  0  0  0  0  0  0  0  0
   20.4627    0.8953   24.9265 N   0  0  0  0  0  0  0  0  0  0  0  0
   15.7328    7.7084   23.1087 H   0  0  0  0  0  0  0  0  0  0  0  0
   17.5883    2.5774   23.7138 H   0  0  0  0  0  0  0  0  0  0  0  0
   18.3926    4.1033   24.4953 H   0  0  0  0  0  0  0  0  0  0  0  0
   13.8338    3.9138   20.3472 H   0  0  0  0  0  0  0  0  0  0  0  0
   14.4462    5.3828   19.5142 H   0  0  0  0  0  0  0  0  0  0  0  0
   15.4248    3.8765   19.5142 H   0  0  0  0  0  0  0  0  0  0  0  0
   16.7048    2.0866   22.3160 H   0  0  0  0  0  0  0  0  0  0  0  0
   16.3579    6.4454   25.7317 H   0  0  0  0  0  0  0  0  0  0  0  0
   17.9566    5.7384   25.3161 H   0  0  0  0  0  0  0  0  0  0  0  0
   17.9847   -0.0413   26.0105 H   0  0  0  0  0  0  0  0  0  0  0  0
   18.0567    1.0608   24.5618 H   0  0  0  0  0  0  0  0  0  0  0  0
   21.3049    0.4926   25.3616 H   0  0  0  0  0  0  0  0  0  0  0  0
   20.0042    0.1823   24.3414 H   0  0  0  0  0  0  0  0  0  0  0  0
  1  3  2  0
  1  8  1  0
  2  6  1  0
  2  7  1  0
  2  8  2  0
  3  5  1  0
  3 11  1  0
  4  5  1  0
  4 10  1  0
  5  6  2  0
  6  9  1  0
 10 17  2  3
 11 12  1  0
 12 13  1  0
 13 14  1  1
 13 15  2  0
 13 16  1  0
 17 18  1  0
 17 19  1  0
 18 20  2  0
 18 21  1  0
 19 22  1  0
 22 23  1  0
  1 24  1  0
  4 25  1  0
  4 26  1  0
  7 27  1  0
  7 28  1  0
  7 29  1  0
  9 30  1  0
 11 31  1  0
 11 32  1  0
 19 33  1  0
 19 34  1  0
 23 35  1  0
 23 36  1  0
M  CHG  3  14  -1  16  -1  21  -1
M  END
>  <filename_input>  (7) 
8AIE_M7L_docked.sdf

>  <pdb_id>  (7) 
8AIE_M7L

>  <pose_rank>  (7) 
6

>  <num_atoms_heavy>  (7) 
23

>  <num_torsions>  (7) 
8

>  <pose>  (7) 
[15.861105881636608, 6.650431943945893, 22.836332651925787, -0.9544238131852819, 2.1613885164436706, -5.404337594557082, 2.2411486235265405, -0.8970472125986135, -3.441429581217211, 0.28484700208659414, 0.040926341603051, -2.392946146019317, -0.05219410495736765, 3.273968080142657]

>  <energy>  (7) 
-373.16782982498955

>  <inter_energy>  (7) 
-380.4452671767012

>  <intra_energy>  (7) 
5.233283382659476

>  <rmsd>  (7) 
3.13989

>  <sdf_rank>  (7) 
0

$$$$

     RDKit          3D

 36 36  0  0  0  0  0  0  0  0999 V2000
   15.4168    4.1367   23.9269 C   0  0  0  0  0  0  0  0  0  0  0  0
   15.5828    5.0337   21.8122 C   0  0  0  0  0  0  0  0  0  0  0  0
   16.5926    4.7332   24.3580 C   0  0  0  0  0  0  0  0  0  0  0  0
   18.5958    6.2372   23.8755 C   0  0  0  0  0  0  0  0  0  0  0  0
   17.3111    5.5295   23.4534 C   0  0  0  0  0  0  0  0  0  0  0  0
   16.7703    5.6788   22.1644 C   0  0  0  0  0  0  0  0  0  0  0  0
   15.0029    5.1416   20.4335 C   0  0  0  0  0  0  0  0  0  0  0  0
   14.9124    4.3126   22.7029 N   0  0  0  0  0  0  0  0  0  0  0  0
   17.3793    6.4624   21.2303 O   0  0  0  0  0  0  0  0  0  0  0  0
   19.7631    5.4848   24.4111 N   0  0  0  0  0  0  0  0  0  0  0  0
   17.0845    4.4951   25.7510 C   0  0  0  0  0  0  0  0  0  0  0  0
   16.8023    5.6649   26.5746 O   0  0  0  0  0  0  0  0  0  0  0  0
   17.9178    6.1432   27.6074 P   0  0  1  0  0  0  0  0  0  0  0  0
   18.5497    7.4176   27.0435 O   0  0  0  0  0  0  0  0  0  0  0  0
   17.2133    6.2814   28.9145 O   0  0  0  0  0  0  0  0  0  0  0  0
   18.8905    4.9620   27.5695 O   0  0  0  0  0  0  0  0  0  0  0  0
   19.9511    4.0925   24.4328 C   0  0  0  0  0  0  0  0  0  0  0  0
   20.9243    3.2909   25.1399 C   0  0  0  0  0  0  0  0  0  0  0  0
   18.9977    3.3156   23.5431 C   0  0  0  0  0  0  0  0  0  0  0  0
   22.1135    2.8370   24.8045 O   0  0  0  0  0  0  0  0  0  0  0  0
   20.4667    2.9996   26.2545 O   0  0  0  0  0  0  0  0  0  0  0  0
   19.6050    2.1392   22.9625 O   0  0  0  0  0  0  0  0  0  0  0  0
   19.2465    0.9310   23.7056 N   0  0  0  0  0  0  0  0  0  0  0  0
   14.8729    3.4865   24.6279 H   0  0  0  0  0  0  0  0  0  0  0  0
   18.9570    6.7780   22.9884 H   0  0  0  0  0  0  0  0  0  0  0  0
   18.2677    6.8156   24.7517 H   0  0  0  0  0  0  0  0  0  0  0  0
   13.9237    5.3423   20.5042 H   0  0  0  0  0  0  0  0  0  0  0  0
   15.4941    5.9638   19.8924 H   0  0  0  0  0  0  0  0  0  0  0  0
   15.1656    4.1977   19.8924 H   0  0  0  0  0  0  0  0  0  0  0  0
   18.2223    6.9320   21.4516 H   0  0  0  0  0  0  0  0  0  0  0  0
   16.5746    3.6172   26.1746 H   0  0  0  0  0  0  0  0  0  0  0  0
   18.1695    4.3153   25.7302 H   0  0  0  0  0  0  0  0  0  0  0  0
   18.1315    3.0031   24.1448 H   0  0  0  0  0  0  0  0  0  0  0  0
   18.7028    3.9782   22.7160 H   0  0  0  0  0  0  0  0  0  0  0  0
   19.3027    1.1203   24.7165 H   0  0  0  0  0  0  0  0  0  0  0  0
   18.2860    0.6502   23.4618 H   0  0  0  0  0  0  0  0  0  0  0  0
  1  3  2  0
  1  8  1  0
  2  6  1  0
  2  7  1  0
  2  8  2  0
  3  5  1  0
  3 11  1  0
  4  5  1  0
  4 10  1  0
  5  6  2  0
  6  9  1  0
 10 17  2  3
 11 12  1  0
 12 13  1  0
 13 14  1  6
 13 15  2  0
 13 16  1  0
 17 18  1  0
 17 19  1  0
 18 20  2  0
 18 21  1  0
 19 22  1  0
 22 23  1  0
  1 24  1  0
  4 25  1  0
  4 26  1  0
  7 27  1  0
  7 28  1  0
  7 29  1  0
  9 30  1  0
 11 31  1  0
 11 32  1  0
 19 33  1  0
 19 34  1  0
 23 35  1  0
 23 36  1  0
M  CHG  3  14  -1  16  -1  21  -1
M  END
>  <filename_input>  (8) 
8AIE_M7L_docked.sdf

>  <pdb_id>  (8) 
8AIE_M7L

>  <pose_rank>  (8) 
7

>  <num_atoms_heavy>  (8) 
23

>  <num_torsions>  (8) 
8

>  <pose>  (8) 
[15.416823930088295, 4.136688848438727, 23.926854214265536, 1.3164466190771213, -0.06460878101398722, 1.9288982121353095, 2.058079832266685, 3.019164164725095, -1.121787246334813, 1.4719470219027022, 4.446031568852512, -3.521431951725654, 1.1257456405209385, -3.2617458455590866]

>  <energy>  (8) 
-556.749815437537

>  <inter_energy>  (8) 
-690.8539292142317

>  <intra_energy>  (8) 
120.30908046328013

>  <rmsd>  (8) 
2.16579

>  <sdf_rank>  (8) 
0

$$$$

     RDKit          3D

 36 36  0  0  0  0  0  0  0  0999 V2000
   19.5039    2.3907   26.4819 C   0  0  0  0  0  0  0  0  0  0  0  0
   19.9739    0.4526   25.3300 C   0  0  0  0  0  0  0  0  0  0  0  0
   18.8931    2.9863   25.3882 C   0  0  0  0  0  0  0  0  0  0  0  0
   18.1366    2.8547   22.9555 C   0  0  0  0  0  0  0  0  0  0  0  0
   18.8223    2.2667   24.1858 C   0  0  0  0  0  0  0  0  0  0  0  0
   19.3689    0.9715   24.1832 C   0  0  0  0  0  0  0  0  0  0  0  0
   20.6010   -0.9095   25.3461 C   0  0  0  0  0  0  0  0  0  0  0  0
   19.9958    1.1493   26.4600 N   0  0  0  0  0  0  0  0  0  0  0  0
   19.3138    0.1848   23.0717 O   0  0  0  0  0  0  0  0  0  0  0  0
   16.6545    2.9483   22.8564 N   0  0  0  0  0  0  0  0  0  0  0  0
   18.3559    4.3786   25.4983 C   0  0  0  0  0  0  0  0  0  0  0  0
   17.9543    4.6389   26.8758 O   0  0  0  0  0  0  0  0  0  0  0  0
   18.9252    5.5126   27.7889 P   0  0  1  0  0  0  0  0  0  0  0  0
   18.0921    6.6450   28.3929 O   0  0  0  0  0  0  0  0  0  0  0  0
   19.5286    4.5518   28.7568 O   0  0  0  0  0  0  0  0  0  0  0  0
   19.9256    6.0330   26.7540 O   0  0  0  0  0  0  0  0  0  0  0  0
   15.8871    4.0657   22.4861 C   0  0  0  0  0  0  0  0  0  0  0  0
   14.4657    4.3033   22.5993 C   0  0  0  0  0  0  0  0  0  0  0  0
   16.6794    5.1838   21.8333 C   0  0  0  0  0  0  0  0  0  0  0  0
   13.5612    4.7084   21.7331 O   0  0  0  0  0  0  0  0  0  0  0  0
   14.1165    4.0829   23.7682 O   0  0  0  0  0  0  0  0  0  0  0  0
   17.4904    5.9210   22.7760 O   0  0  0  0  0  0  0  0  0  0  0  0
   16.9304    7.2467   23.0401 N   0  0  0  0  0  0  0  0  0  0  0  0
   19.5872    2.9695   27.4136 H   0  0  0  0  0  0  0  0  0  0  0  0
   18.5193    3.8804   22.8485 H   0  0  0  0  0  0  0  0  0  0  0  0
   18.3773    2.1154   22.1773 H   0  0  0  0  0  0  0  0  0  0  0  0
   20.7496   -1.2325   26.3871 H   0  0  0  0  0  0  0  0  0  0  0  0
   19.9407   -1.6232   24.8315 H   0  0  0  0  0  0  0  0  0  0  0  0
   21.5724   -0.8721   24.8315 H   0  0  0  0  0  0  0  0  0  0  0  0
   18.8909    0.5260   22.2442 H   0  0  0  0  0  0  0  0  0  0  0  0
   19.1350    5.0964   25.2020 H   0  0  0  0  0  0  0  0  0  0  0  0
   17.4844    4.4880   24.8362 H   0  0  0  0  0  0  0  0  0  0  0  0
   17.3388    4.7471   21.0688 H   0  0  0  0  0  0  0  0  0  0  0  0
   15.9575    5.8890   21.3956 H   0  0  0  0  0  0  0  0  0  0  0  0
   16.8672    7.3963   24.0573 H   0  0  0  0  0  0  0  0  0  0  0  0
   17.5396    7.9658   22.6245 H   0  0  0  0  0  0  0  0  0  0  0  0
  1  3  2  0
  1  8  1  0
  2  6  1  0
  2  7  1  0
  2  8  2  0
  3  5  1  0
  3 11  1  0
  4  5  1  0
  4 10  1  0
  5  6  2  0
  6  9  1  0
 10 17  2  3
 11 12  1  0
 12 13  1  0
 13 14  1  1
 13 15  2  0
 13 16  1  0
 17 18  1  0
 17 19  1  0
 18 20  2  0
 18 21  1  0
 19 22  1  0
 22 23  1  0
  1 24  1  0
  4 25  1  0
  4 26  1  0
  7 27  1  0
  7 28  1  0
  7 29  1  0
  9 30  1  0
 11 31  1  0
 11 32  1  0
 19 33  1  0
 19 34  1  0
 23 35  1  0
 23 36  1  0
M  CHG  3  14  -1  16  -1  21  -1
M  END
>  <filename_input>  (9) 
8AIE_M7L_docked.sdf

>  <pdb_id>  (9) 
8AIE_M7L

>  <pose_rank>  (9) 
8

>  <num_atoms_heavy>  (9) 
23

>  <num_torsions>  (9) 
8

>  <pose>  (9) 
[19.503862405789945, 2.3906581157718683, 26.481923924379977, -0.5542549991770894, -2.52811982735941, -1.750327583965068, -0.2496146649134507, 5.137522216209376, -1.7693694507748183, 3.917550713518892, 0.850212747327778, 4.060466949059921, -0.9461273395858338, 3.390354681872068]

>  <energy>  (9) 
-645.6310467139701

>  <inter_energy>  (9) 
-664.5815071270887

>  <intra_energy>  (9) 
28.332221437907915

>  <rmsd>  (9) 
5.57123

>  <sdf_rank>  (9) 
0

$$$$

     RDKit          3D

 36 36  0  0  0  0  0  0  0  0999 V2000
   17.1955    6.2933   24.9996 C   0  0  0  0  0  0  0  0  0  0  0  0
   18.2075    5.9149   27.0334 C   0  0  0  0  0  0  0  0  0  0  0  0
   17.7115    5.1346   24.4380 C   0  0  0  0  0  0  0  0  0  0  0  0
   19.1063    3.0121   24.6775 C   0  0  0  0  0  0  0  0  0  0  0  0
   18.5324    4.3151   25.2274 C   0  0  0  0  0  0  0  0  0  0  0  0
   18.7613    4.7265   26.5520 C   0  0  0  0  0  0  0  0  0  0  0  0
   18.4664    6.3999   28.4286 C   0  0  0  0  0  0  0  0  0  0  0  0
   17.4098    6.6505   26.2684 N   0  0  0  0  0  0  0  0  0  0  0  0
   19.5157    3.9760   27.4035 O   0  0  0  0  0  0  0  0  0  0  0  0
   18.4216    1.7070   24.8854 N   0  0  0  0  0  0  0  0  0  0  0  0
   17.4141    4.7992   23.0104 C   0  0  0  0  0  0  0  0  0  0  0  0
   15.9780    4.6086   22.8431 O   0  0  0  0  0  0  0  0  0  0  0  0
   15.3065    5.1114   21.4880 P   0  0  1  0  0  0  0  0  0  0  0  0
   15.1169    3.8886   20.5880 O   0  0  0  0  0  0  0  0  0  0  0  0
   14.0625    5.8216   21.9030 O   0  0  0  0  0  0  0  0  0  0  0  0
   16.3856    6.0528   20.9475 O   0  0  0  0  0  0  0  0  0  0  0  0
   18.7186    0.4748   24.2789 C   0  0  0  0  0  0  0  0  0  0  0  0
   17.9626   -0.7568   24.2439 C   0  0  0  0  0  0  0  0  0  0  0  0
   20.0648    0.4271   23.5792 C   0  0  0  0  0  0  0  0  0  0  0  0
   18.1829   -1.9490   24.7565 O   0  0  0  0  0  0  0  0  0  0  0  0
   16.9407   -0.5782   23.5653 O   0  0  0  0  0  0  0  0  0  0  0  0
   20.9534   -0.5658   24.1398 O   0  0  0  0  0  0  0  0  0  0  0  0
   21.4207   -1.5025   23.1176 N   0  0  0  0  0  0  0  0  0  0  0  0
   16.5792    6.9505   24.3685 H   0  0  0  0  0  0  0  0  0  0  0  0
   19.1919    3.1467   23.5891 H   0  0  0  0  0  0  0  0  0  0  0  0
   20.0250    2.8919   25.2705 H   0  0  0  0  0  0  0  0  0  0  0  0
   18.0753    5.6673   29.1500 H   0  0  0  0  0  0  0  0  0  0  0  0
   19.5492    6.5211   28.5797 H   0  0  0  0  0  0  0  0  0  0  0  0
   17.9646    7.3670   28.5797 H   0  0  0  0  0  0  0  0  0  0  0  0
   19.9209    3.1288   27.0901 H   0  0  0  0  0  0  0  0  0  0  0  0
   17.7525    5.6213   22.3627 H   0  0  0  0  0  0  0  0  0  0  0  0
   17.9406    3.8735   22.7346 H   0  0  0  0  0  0  0  0  0  0  0  0
   19.9006    0.1920   22.5172 H   0  0  0  0  0  0  0  0  0  0  0  0
   20.5412    1.4097   23.7111 H   0  0  0  0  0  0  0  0  0  0  0  0
   21.8332   -2.3294   23.5725 H   0  0  0  0  0  0  0  0  0  0  0  0
   20.6264   -1.7941   22.5303 H   0  0  0  0  0  0  0  0  0  0  0  0
  1  3  2  0
  1  8  1  0
  2  6  1  0
  2  7  1  0
  2  8  2  0
  3  5  1  0
  3 11  1  0
  4  5  1  0
  4 10  1  0
  5  6  2  0
  6  9  1  0
 10 17  2  3
 11 12  1  0
 12 13  1  0
 13 14  1  6
 13 15  2  0
 13 16  1  0
 17 18  1  0
 17 19  1  0
 18 20  2  0
 18 21  1  0
 19 22  1  0
 22 23  1  0
  1 24  1  0
  4 25  1  0
  4 26  1  0
  7 27  1  0
  7 28  1  0
  7 29  1  0
  9 30  1  0
 11 31  1  0
 11 32  1  0
 19 33  1  0
 19 34  1  0
 23 35  1  0
 23 36  1  0
M  CHG  3  14  -1  16  -1  21  -1
M  END
>  <filename_input>  (10) 
8AIE_M7L_docked.sdf

>  <pdb_id>  (10) 
8AIE_M7L

>  <pose_rank>  (10) 
9

>  <num_atoms_heavy>  (10) 
23

>  <num_torsions>  (10) 
8

>  <pose>  (10) 
[17.195518581700764, 6.293256939262559, 24.99959477570316, 1.0770611967890706, -3.4059656475671467, 0.43169303951727633, -0.5912275189332694, -0.47276083694331417, -1.49372882452706, 0.9967800584177727, -1.398720490781369, 3.477016592764982, -0.22876748442945075, -3.3671249599327595]

>  <energy>  (10) 
-632.1007879297212

>  <inter_energy>  (10) 
-622.6205598602922

>  <intra_energy>  (10) 
1.7648616848821046

>  <rmsd>  (10) 
4.99077

>  <sdf_rank>  (10) 
0

$$$$

     RDKit          3D

 36 36  0  0  0  0  0  0  0  0999 V2000
   16.5322    4.4113   22.3651 C   0  0  0  0  0  0  0  0  0  0  0  0
   17.0639    6.2177   23.6910 C   0  0  0  0  0  0  0  0  0  0  0  0
   17.4058    3.5645   23.0314 C   0  0  0  0  0  0  0  0  0  0  0  0
   19.1159    3.1943   24.8878 C   0  0  0  0  0  0  0  0  0  0  0  0
   18.1598    4.0819   24.0956 C   0  0  0  0  0  0  0  0  0  0  0  0
   17.9596    5.4344   24.4223 C   0  0  0  0  0  0  0  0  0  0  0  0
   16.8589    7.6728   23.9901 C   0  0  0  0  0  0  0  0  0  0  0  0
   16.3436    5.6877   22.7097 N   0  0  0  0  0  0  0  0  0  0  0  0
   18.6207    6.0140   25.4637 O   0  0  0  0  0  0  0  0  0  0  0  0
   20.5382    3.0218   24.4843 N   0  0  0  0  0  0  0  0  0  0  0  0
   17.5507    2.1421   22.5901 C   0  0  0  0  0  0  0  0  0  0  0  0
   16.9908    1.2571   23.6049 O   0  0  0  0  0  0  0  0  0  0  0  0
   17.7227   -0.1323   23.8764 P   0  0  1  0  0  0  0  0  0  0  0  0
   18.7520   -0.3346   22.7624 O   0  0  0  0  0  0  0  0  0  0  0  0
   18.2649   -0.0294   25.2619 O   0  0  0  0  0  0  0  0  0  0  0  0
   16.5563   -1.1162   23.7577 O   0  0  0  0  0  0  0  0  0  0  0  0
   21.4430    2.0408   24.9240 C   0  0  0  0  0  0  0  0  0  0  0  0
   22.8777    1.9549   24.7692 C   0  0  0  0  0  0  0  0  0  0  0  0
   20.7997    0.8713   25.6469 C   0  0  0  0  0  0  0  0  0  0  0  0
   23.6806    0.9553   24.4712 O   0  0  0  0  0  0  0  0  0  0  0  0
   23.3709    3.0686   24.9994 O   0  0  0  0  0  0  0  0  0  0  0  0
   21.7330   -0.1963   25.9281 O   0  0  0  0  0  0  0  0  0  0  0  0
   21.3881   -1.4143   25.1943 N   0  0  0  0  0  0  0  0  0  0  0  0
   15.9668    4.0116   21.5104 H   0  0  0  0  0  0  0  0  0  0  0  0
   19.1313    3.5934   25.9127 H   0  0  0  0  0  0  0  0  0  0  0  0
   18.7003    2.1904   24.7162 H   0  0  0  0  0  0  0  0  0  0  0  0
   16.8376    7.8237   25.0795 H   0  0  0  0  0  0  0  0  0  0  0  0
   17.6837    8.2563   23.5551 H   0  0  0  0  0  0  0  0  0  0  0  0
   15.9050    8.0057   23.5551 H   0  0  0  0  0  0  0  0  0  0  0  0
   19.2617    5.4832   25.9999 H   0  0  0  0  0  0  0  0  0  0  0  0
   17.0143    1.9966   21.6408 H   0  0  0  0  0  0  0  0  0  0  0  0
   18.6165    1.9093   22.4493 H   0  0  0  0  0  0  0  0  0  0  0  0
   20.3825    1.2329   26.5983 H   0  0  0  0  0  0  0  0  0  0  0  0
   20.0194    0.4635   24.9875 H   0  0  0  0  0  0  0  0  0  0  0  0
   21.1745   -2.1686   25.8623 H   0  0  0  0  0  0  0  0  0  0  0  0
   20.5644   -1.2367   24.6021 H   0  0  0  0  0  0  0  0  0  0  0  0
  1  3  2  0
  1  8  1  0
  2  6  1  0
  2  7  1  0
  2  8  2  0
  3  5  1  0
  3 11  1  0
  4  5  1  0
  4 10  1  0
  5  6  2  0
  6  9  1  0
 10 17  2  3
 11 12  1  0
 12 13  1  0
 13 14  1  6
 13 15  2  0
 13 16  1  0
 17 18  1  0
 17 19  1  0
 18 20  2  0
 18 21  1  0
 19 22  1  0
 22 23  1  0
  1 24  1  0
  4 25  1  0
  4 26  1  0
  7 27  1  0
  7 28  1  0
  7 29  1  0
  9 30  1  0
 11 31  1  0
 11 32  1  0
 19 33  1  0
 19 34  1  0
 23 35  1  0
 23 36  1  0
M  CHG  3  14  -1  16  -1  21  -1
M  END
>  <filename_input>  (11) 
8AIE_M7L_docked.sdf

>  <pdb_id>  (11) 
8AIE_M7L

>  <pose_rank>  (11) 
10

>  <num_atoms_heavy>  (11) 
23

>  <num_torsions>  (11) 
8

>  <pose>  (11) 
[16.532240379763536, 4.4113001716536235, 22.365074113012394, -1.451235817883981, 1.9723922428558014, -1.5456905163104349, 2.611923925337795, -0.03226813888107362, -1.9132035509401695, 1.9318094344163061, 0.709926608776258, -3.6581806606866913, 1.054209462559099, 0.9729874002313474]

>  <energy>  (11) 
-647.0072620527296

>  <inter_energy>  (11) 
-707.6707875128095

>  <intra_energy>  (11) 
51.950145710486886

>  <rmsd>  (11) 
4.2621

>  <sdf_rank>  (11) 
0

$$$$

     RDKit          3D

 36 36  0  0  0  0  0  0  0  0999 V2000
   17.6810    1.3694   22.8372 C   0  0  0  0  0  0  0  0  0  0  0  0
   19.1275    0.0251   24.0221 C   0  0  0  0  0  0  0  0  0  0  0  0
   17.7492    2.3970   23.7664 C   0  0  0  0  0  0  0  0  0  0  0  0
   18.6992    3.3280   25.9432 C   0  0  0  0  0  0  0  0  0  0  0  0
   18.5583    2.2233   24.8995 C   0  0  0  0  0  0  0  0  0  0  0  0
   19.2619    1.0106   25.0024 C   0  0  0  0  0  0  0  0  0  0  0  0
   19.8337   -1.2939   24.1246 C   0  0  0  0  0  0  0  0  0  0  0  0
   18.3773    0.2351   22.9470 N   0  0  0  0  0  0  0  0  0  0  0  0
   20.0999    0.7679   26.0494 O   0  0  0  0  0  0  0  0  0  0  0  0
   19.0691    4.7191   25.5642 N   0  0  0  0  0  0  0  0  0  0  0  0
   16.9455    3.6428   23.5637 C   0  0  0  0  0  0  0  0  0  0  0  0
   16.2349    3.5634   22.2928 O   0  0  0  0  0  0  0  0  0  0  0  0
   15.1127    4.6538   21.9902 P   0  0  1  0  0  0  0  0  0  0  0  0
   15.6178    5.9942   22.5284 O   0  0  0  0  0  0  0  0  0  0  0  0
   14.8781    4.5822   20.5193 O   0  0  0  0  0  0  0  0  0  0  0  0
   13.9399    4.1166   22.8140 O   0  0  0  0  0  0  0  0  0  0  0  0
   19.1694    5.8406   26.4047 C   0  0  0  0  0  0  0  0  0  0  0  0
   19.2819    7.2450   26.0811 C   0  0  0  0  0  0  0  0  0  0  0  0
   19.1971    5.5146   27.8870 C   0  0  0  0  0  0  0  0  0  0  0  0
   20.0689    8.1997   26.5304 O   0  0  0  0  0  0  0  0  0  0  0  0
   18.4269    7.5275   25.2292 O   0  0  0  0  0  0  0  0  0  0  0  0
   18.1071    4.6563   28.2930 O   0  0  0  0  0  0  0  0  0  0  0  0
   18.4465    3.2437   28.1197 N   0  0  0  0  0  0  0  0  0  0  0  0
   17.0204    1.4950   21.9665 H   0  0  0  0  0  0  0  0  0  0  0  0
   17.7283    3.3949   26.4560 H   0  0  0  0  0  0  0  0  0  0  0  0
   19.5792    2.9991   26.5153 H   0  0  0  0  0  0  0  0  0  0  0  0
   19.9729   -1.5539   25.1843 H   0  0  0  0  0  0  0  0  0  0  0  0
   19.2313   -2.0716   23.6323 H   0  0  0  0  0  0  0  0  0  0  0  0
   20.8149   -1.2237   23.6323 H   0  0  0  0  0  0  0  0  0  0  0  0
   20.2150    1.4482   26.7593 H   0  0  0  0  0  0  0  0  0  0  0  0
   16.2196    3.7479   24.3834 H   0  0  0  0  0  0  0  0  0  0  0  0
   17.6171    4.5139   23.5536 H   0  0  0  0  0  0  0  0  0  0  0  0
   20.1467    5.0097   28.1180 H   0  0  0  0  0  0  0  0  0  0  0  0
   19.0943    6.4622   28.4361 H   0  0  0  0  0  0  0  0  0  0  0  0
   18.5531    2.8004   29.0433 H   0  0  0  0  0  0  0  0  0  0  0  0
   17.6950    2.7716   27.5969 H   0  0  0  0  0  0  0  0  0  0  0  0
  1  3  2  0
  1  8  1  0
  2  6  1  0
  2  7  1  0
  2  8  2  0
  3  5  1  0
  3 11  1  0
  4  5  1  0
  4 10  1  0
  5  6  2  0
  6  9  1  0
 10 17  2  3
 11 12  1  0
 12 13  1  0
 13 14  1  1
 13 15  2  0
 13 16  1  0
 17 18  1  0
 17 19  1  0
 18 20  2  0
 18 21  1  0
 19 22  1  0
 22 23  1  0
  1 24  1  0
  4 25  1  0
  4 26  1  0
  7 27  1  0
  7 28  1  0
  7 29  1  0
  9 30  1  0
 11 31  1  0
 11 32  1  0
 19 33  1  0
 19 34  1  0
 23 35  1  0
 23 36  1  0
M  CHG  3  14  -1  16  -1  21  -1
M  END
>  <filename_input>  (12) 
8AIE_M7L_docked.sdf

>  <pdb_id>  (12) 
8AIE_M7L

>  <pose_rank>  (12) 
11

>  <num_atoms_heavy>  (12) 
23

>  <num_torsions>  (12) 
8

>  <pose>  (12) 
[17.680955612473138, 1.3693650817820762, 22.837153907192082, 2.939370538578804, 0.7897502077345262, -3.2775318072113158, 0.141713040414175, -0.351572448442879, 4.436903444531436, 4.304899536419988, -2.0510940874996635, -1.7686074646895262, 0.21962755270788267, -4.444608816746901]

>  <energy>  (12) 
-522.5323348508746

>  <inter_energy>  (12) 
-616.1820257676736

>  <intra_energy>  (12) 
112.92192320629482

>  <rmsd>  (12) 
5.83832

>  <sdf_rank>  (12) 
0

$$$$

     RDKit          3D

 36 36  0  0  0  0  0  0  0  0999 V2000
   19.1304    5.8377   24.3462 C   0  0  0  0  0  0  0  0  0  0  0  0
   17.0637    6.5062   23.5810 C   0  0  0  0  0  0  0  0  0  0  0  0
   18.7278    4.5219   24.5213 C   0  0  0  0  0  0  0  0  0  0  0  0
   16.9080    2.7423   24.3505 C   0  0  0  0  0  0  0  0  0  0  0  0
   17.4039    4.1787   24.2081 C   0  0  0  0  0  0  0  0  0  0  0  0
   16.5768    5.2045   23.7182 C   0  0  0  0  0  0  0  0  0  0  0  0
   16.1944    7.6292   23.0993 C   0  0  0  0  0  0  0  0  0  0  0  0
   18.3311    6.7894   23.8575 N   0  0  0  0  0  0  0  0  0  0  0  0
   15.2871    4.9573   23.3535 O   0  0  0  0  0  0  0  0  0  0  0  0
   17.2269    1.7010   23.3359 N   0  0  0  0  0  0  0  0  0  0  0  0
   19.6894    3.5117   25.0637 C   0  0  0  0  0  0  0  0  0  0  0  0
   20.9481    3.5946   24.3321 O   0  0  0  0  0  0  0  0  0  0  0  0
   21.7070    2.2364   23.9869 P   0  0  1  0  0  0  0  0  0  0  0  0
   20.8753    1.0870   24.5600 O   0  0  0  0  0  0  0  0  0  0  0  0
   21.8821    2.2467   22.5059 O   0  0  0  0  0  0  0  0  0  0  0  0
   23.0208    2.4224   24.7499 O   0  0  0  0  0  0  0  0  0  0  0  0
   16.5707    0.4763   23.1263 C   0  0  0  0  0  0  0  0  0  0  0  0
   16.9625   -0.6725   22.3411 C   0  0  0  0  0  0  0  0  0  0  0  0
   15.2201    0.3620   23.8095 C   0  0  0  0  0  0  0  0  0  0  0  0
   17.0588   -0.8702   21.0433 O   0  0  0  0  0  0  0  0  0  0  0  0
   17.2179   -1.6117   23.1088 O   0  0  0  0  0  0  0  0  0  0  0  0
   14.2247    1.2387   23.2348 O   0  0  0  0  0  0  0  0  0  0  0  0
   14.6744    1.7925   21.9574 N   0  0  0  0  0  0  0  0  0  0  0  0
   20.1593    6.1108   24.6235 H   0  0  0  0  0  0  0  0  0  0  0  0
   17.3027    2.3722   25.3083 H   0  0  0  0  0  0  0  0  0  0  0  0
   15.8202    2.8572   24.2344 H   0  0  0  0  0  0  0  0  0  0  0  0
   15.7779    8.1672   23.9636 H   0  0  0  0  0  0  0  0  0  0  0  0
   16.7940    8.3219   22.4904 H   0  0  0  0  0  0  0  0  0  0  0  0
   15.3736    7.2223   22.4904 H   0  0  0  0  0  0  0  0  0  0  0  0
   14.9147    4.0440   23.4397 H   0  0  0  0  0  0  0  0  0  0  0  0
   19.8711    3.7143   26.1295 H   0  0  0  0  0  0  0  0  0  0  0  0
   19.2648    2.5036   24.9484 H   0  0  0  0  0  0  0  0  0  0  0  0
   14.8677   -0.6762   23.7198 H   0  0  0  0  0  0  0  0  0  0  0  0
   15.3548    0.6582   24.8603 H   0  0  0  0  0  0  0  0  0  0  0  0
   15.3143    2.5806   22.1310 H   0  0  0  0  0  0  0  0  0  0  0  0
   15.1655    1.0632   21.4209 H   0  0  0  0  0  0  0  0  0  0  0  0
  1  3  2  0
  1  8  1  0
  2  6  1  0
  2  7  1  0
  2  8  2  0
  3  5  1  0
  3 11  1  0
  4  5  1  0
  4 10  1  0
  5  6  2  0
  6  9  1  0
 10 17  2  3
 11 12  1  0
 12 13  1  0
 13 14  1  1
 13 15  2  0
 13 16  1  0
 17 18  1  0
 17 19  1  0
 18 20  2  0
 18 21  1  0
 19 22  1  0
 22 23  1  0
  1 24  1  0
  4 25  1  0
  4 26  1  0
  7 27  1  0
  7 28  1  0
  7 29  1  0
  9 30  1  0
 11 31  1  0
 11 32  1  0
 19 33  1  0
 19 34  1  0
 23 35  1  0
 23 36  1  0
M  CHG  3  14  -1  16  -1  21  -1
M  END
>  <filename_input>  (13) 
8AIE_M7L_docked.sdf

>  <pdb_id>  (13) 
8AIE_M7L

>  <pose_rank>  (13) 
12

>  <num_atoms_heavy>  (13) 
23

>  <num_torsions>  (13) 
8

>  <pose>  (13) 
[19.130446491883077, 5.83765875366222, 24.34615933189337, -2.3917900628519755, -1.8673951209863116, 4.219921116507546, -0.3147021153146564, 0.037725868539480484, -0.7329237583391157, 0.11775765785309, 2.9385714748976612, 3.7103591615773404, 1.093602024974946, 1.1541297932749222]

>  <energy>  (13) 
-286.39611461300893

>  <inter_energy>  (13) 
-316.17922020279417

>  <intra_energy>  (13) 
24.417405270654932

>  <rmsd>  (13) 
4.40386

>  <sdf_rank>  (13) 
0

$$$$

     RDKit          3D

 36 36  0  0  0  0  0  0  0  0999 V2000
   20.5704   -0.7435   23.3865 C   0  0  0  0  0  0  0  0  0  0  0  0
   18.4096    0.0526   23.4172 C   0  0  0  0  0  0  0  0  0  0  0  0
   21.0782    0.3824   24.0179 C   0  0  0  0  0  0  0  0  0  0  0  0
   20.6831    2.6625   25.0914 C   0  0  0  0  0  0  0  0  0  0  0  0
   20.1914    1.4117   24.3681 C   0  0  0  0  0  0  0  0  0  0  0  0
   18.8330    1.2161   24.0633 C   0  0  0  0  0  0  0  0  0  0  0  0
   16.9739   -0.1667   23.0433 C   0  0  0  0  0  0  0  0  0  0  0  0
   19.2714   -0.9151   23.1281 N   0  0  0  0  0  0  0  0  0  0  0  0
   17.8939    2.1452   24.3983 O   0  0  0  0  0  0  0  0  0  0  0  0
   19.8967    3.2920   26.1872 N   0  0  0  0  0  0  0  0  0  0  0  0
   22.5468    0.4926   24.2826 C   0  0  0  0  0  0  0  0  0  0  0  0
   23.2888   -0.0249   23.1388 O   0  0  0  0  0  0  0  0  0  0  0  0
   24.4871   -1.0381   23.4169 P   0  0  1  0  0  0  0  0  0  0  0  0
   24.7417   -1.8146   22.1233 O   0  0  0  0  0  0  0  0  0  0  0  0
   25.6131   -0.1932   23.9092 O   0  0  0  0  0  0  0  0  0  0  0  0
   23.8826   -1.9292   24.5048 O   0  0  0  0  0  0  0  0  0  0  0  0
   19.0643    4.4213   26.1081 C   0  0  0  0  0  0  0  0  0  0  0  0
   18.4723    5.2222   27.1558 C   0  0  0  0  0  0  0  0  0  0  0  0
   18.7072    4.8409   24.6937 C   0  0  0  0  0  0  0  0  0  0  0  0
   18.1420    6.4946   27.2219 O   0  0  0  0  0  0  0  0  0  0  0  0
   18.2945    4.5067   28.1523 O   0  0  0  0  0  0  0  0  0  0  0  0
   19.4164    6.0251   24.2640 O   0  0  0  0  0  0  0  0  0  0  0  0
   18.4918    7.0790   23.8455 N   0  0  0  0  0  0  0  0  0  0  0  0
   21.2725   -1.5343   23.0837 H   0  0  0  0  0  0  0  0  0  0  0  0
   21.6627    2.4064   25.5213 H   0  0  0  0  0  0  0  0  0  0  0  0
   20.6346    3.4252   24.3002 H   0  0  0  0  0  0  0  0  0  0  0  0
   16.3673   -0.2593   23.9562 H   0  0  0  0  0  0  0  0  0  0  0  0
   16.6151    0.6871   22.4497 H   0  0  0  0  0  0  0  0  0  0  0  0
   16.8863   -1.0886   22.4497 H   0  0  0  0  0  0  0  0  0  0  0  0
   18.1647    2.9796   24.8571 H   0  0  0  0  0  0  0  0  0  0  0  0
   22.8118    1.5479   24.4441 H   0  0  0  0  0  0  0  0  0  0  0  0
   22.8019   -0.0917   25.1790 H   0  0  0  0  0  0  0  0  0  0  0  0
   18.9543    4.0158   24.0095 H   0  0  0  0  0  0  0  0  0  0  0  0
   17.6326    5.0754   24.6795 H   0  0  0  0  0  0  0  0  0  0  0  0
   18.0916    7.5351   24.6778 H   0  0  0  0  0  0  0  0  0  0  0  0
   18.9986    7.7765   23.2820 H   0  0  0  0  0  0  0  0  0  0  0  0
  1  3  2  0
  1  8  1  0
  2  6  1  0
  2  7  1  0
  2  8  2  0
  3  5  1  0
  3 11  1  0
  4  5  1  0
  4 10  1  0
  5  6  2  0
  6  9  1  0
 10 17  2  3
 11 12  1  0
 12 13  1  0
 13 14  1  6
 13 15  2  0
 13 16  1  0
 17 18  1  0
 17 19  1  0
 18 20  2  0
 18 21  1  0
 19 22  1  0
 22 23  1  0
  1 24  1  0
  4 25  1  0
  4 26  1  0
  7 27  1  0
  7 28  1  0
  7 29  1  0
  9 30  1  0
 11 31  1  0
 11 32  1  0
 19 33  1  0
 19 34  1  0
 23 35  1  0
 23 36  1  0
M  CHG  3  14  -1  16  -1  21  -1
M  END
>  <filename_input>  (14) 
8AIE_M7L_docked.sdf

>  <pdb_id>  (14) 
8AIE_M7L

>  <pose_rank>  (14) 
13

>  <num_atoms_heavy>  (14) 
23

>  <num_torsions>  (14) 
8

>  <pose>  (14) 
[20.57038838983667, -0.7434987788469438, 23.386522422964013, 3.2030695737922947, 0.190433583095795, 2.0086550149690057, -1.3913262724219668, -5.184211588539449, -3.181209399893496, 3.3656509689733416, 0.5604323567440143, 5.263790985377399, 1.2357555956738822, -2.34172588183604]

>  <energy>  (14) 
-528.9832773049927

>  <inter_energy>  (14) 
-565.906477698521

>  <intra_energy>  (14) 
37.375269430365684

>  <rmsd>  (14) 
6.75439

>  <sdf_rank>  (14) 
0

$$$$

     RDKit          3D

 36 36  0  0  0  0  0  0  0  0999 V2000
   21.4286   -2.2133   24.2350 C   0  0  0  0  0  0  0  0  0  0  0  0
   23.4553   -1.5816   23.3423 C   0  0  0  0  0  0  0  0  0  0  0  0
   21.2616   -1.0125   24.9091 C   0  0  0  0  0  0  0  0  0  0  0  0
   22.1222    1.3187   25.4858 C   0  0  0  0  0  0  0  0  0  0  0  0
   22.2608   -0.0343   24.7933 C   0  0  0  0  0  0  0  0  0  0  0  0
   23.3645   -0.3417   23.9786 C   0  0  0  0  0  0  0  0  0  0  0  0
   24.6389   -1.9534   22.4997 C   0  0  0  0  0  0  0  0  0  0  0  0
   22.4765   -2.4723   23.4487 N   0  0  0  0  0  0  0  0  0  0  0  0
   24.3661    0.5604   23.7777 O   0  0  0  0  0  0  0  0  0  0  0  0
   21.3581    2.4376   24.8698 N   0  0  0  0  0  0  0  0  0  0  0  0
   20.0512   -0.7959   25.7619 C   0  0  0  0  0  0  0  0  0  0  0  0
   18.8557   -0.8219   24.9273 O   0  0  0  0  0  0  0  0  0  0  0  0
   19.0111   -0.4683   23.3812 P   0  0  1  0  0  0  0  0  0  0  0  0
   17.6266   -0.0816   22.8569 O   0  0  0  0  0  0  0  0  0  0  0  0
   20.0570    0.5931   23.3214 O   0  0  0  0  0  0  0  0  0  0  0  0
   19.4804   -1.8090   22.8107 O   0  0  0  0  0  0  0  0  0  0  0  0
   20.1528    3.0041   25.3180 C   0  0  0  0  0  0  0  0  0  0  0  0
   19.2414    3.9095   24.6553 C   0  0  0  0  0  0  0  0  0  0  0  0
   19.7708    2.6268   26.7378 C   0  0  0  0  0  0  0  0  0  0  0  0
   18.2388    3.7110   23.8258 O   0  0  0  0  0  0  0  0  0  0  0  0
   19.5425    5.0726   24.9606 O   0  0  0  0  0  0  0  0  0  0  0  0
   18.7715    3.5058   27.3023 O   0  0  0  0  0  0  0  0  0  0  0  0
   19.1094    4.9117   27.0791 N   0  0  0  0  0  0  0  0  0  0  0  0
   20.6596   -2.9908   24.3540 H   0  0  0  0  0  0  0  0  0  0  0  0
   21.6503    1.1210   26.4596 H   0  0  0  0  0  0  0  0  0  0  0  0
   23.1539    1.6997   25.4645 H   0  0  0  0  0  0  0  0  0  0  0  0
   25.4841   -2.2190   23.1517 H   0  0  0  0  0  0  0  0  0  0  0  0
   24.3811   -2.8139   21.8648 H   0  0  0  0  0  0  0  0  0  0  0  0
   24.9195   -1.1002   21.8648 H   0  0  0  0  0  0  0  0  0  0  0  0
   24.3286    1.4474   24.2159 H   0  0  0  0  0  0  0  0  0  0  0  0
   19.9880   -1.5928   26.5174 H   0  0  0  0  0  0  0  0  0  0  0  0
   20.1266    0.1804   26.2629 H   0  0  0  0  0  0  0  0  0  0  0  0
   19.3744    1.6007   26.7341 H   0  0  0  0  0  0  0  0  0  0  0  0
   20.6754    2.7129   27.3578 H   0  0  0  0  0  0  0  0  0  0  0  0
   19.2234    5.3857   27.9864 H   0  0  0  0  0  0  0  0  0  0  0  0
   19.9891    4.9731   26.5468 H   0  0  0  0  0  0  0  0  0  0  0  0
  1  3  2  0
  1  8  1  0
  2  6  1  0
  2  7  1  0
  2  8  2  0
  3  5  1  0
  3 11  1  0
  4  5  1  0
  4 10  1  0
  5  6  2  0
  6  9  1  0
 10 17  2  3
 11 12  1  0
 12 13  1  0
 13 14  1  6
 13 15  2  0
 13 16  1  0
 17 18  1  0
 17 19  1  0
 18 20  2  0
 18 21  1  0
 19 22  1  0
 22 23  1  0
  1 24  1  0
  4 25  1  0
  4 26  1  0
  7 27  1  0
  7 28  1  0
  7 29  1  0
  9 30  1  0
 11 31  1  0
 11 32  1  0
 19 33  1  0
 19 34  1  0
 23 35  1  0
 23 36  1  0
M  CHG  3  14  -1  16  -1  21  -1
M  END
>  <filename_input>  (15) 
8AIE_M7L_docked.sdf

>  <pdb_id>  (15) 
8AIE_M7L

>  <pose_rank>  (15) 
14

>  <num_atoms_heavy>  (15) 
23

>  <num_torsions>  (15) 
8

>  <pose>  (15) 
[21.428553017637114, -2.213288168709179, 24.23503703768638, 0.470276883193717, -0.12104093193464203, -3.5857334646709296, -0.41417705801474947, -1.4688787740104983, 1.9788250846691657, 1.7668544501231596, 1.8882114062420872, -2.8279557930930332, 3.128240121593121, -1.6341864163104878]

>  <energy>  (15) 
-191.1453991939979

>  <inter_energy>  (15) 
-468.79018133175754

>  <intra_energy>  (15) 
278.0654260931183

>  <rmsd>  (15) 
7.25094

>  <sdf_rank>  (15) 
0

$$$$

     RDKit          3D

 36 36  0  0  0  0  0  0  0  0999 V2000
   18.2177    6.7253   23.8781 C   0  0  0  0  0  0  0  0  0  0  0  0
   19.4017    7.1289   25.8118 C   0  0  0  0  0  0  0  0  0  0  0  0
   18.2903    5.3481   24.0272 C   0  0  0  0  0  0  0  0  0  0  0  0
   19.0559    3.3241   25.3781 C   0  0  0  0  0  0  0  0  0  0  0  0
   18.9669    4.8293   25.1414 C   0  0  0  0  0  0  0  0  0  0  0  0
   19.5148    5.7565   26.0449 C   0  0  0  0  0  0  0  0  0  0  0  0
   20.0101    8.1410   26.7360 C   0  0  0  0  0  0  0  0  0  0  0  0
   18.7276    7.5857   24.7631 N   0  0  0  0  0  0  0  0  0  0  0  0
   20.1579    5.3458   27.1741 O   0  0  0  0  0  0  0  0  0  0  0  0
   20.3656    2.6226   25.4660 N   0  0  0  0  0  0  0  0  0  0  0  0
   17.6819    4.4514   22.9952 C   0  0  0  0  0  0  0  0  0  0  0  0
   16.2579    4.2918   23.2661 O   0  0  0  0  0  0  0  0  0  0  0  0
   15.2249    4.7166   22.1294 P   0  0  1  0  0  0  0  0  0  0  0  0
   14.3371    3.5046   21.8392 O   0  0  0  0  0  0  0  0  0  0  0  0
   14.5326    5.9277   22.6567 O   0  0  0  0  0  0  0  0  0  0  0  0
   16.1681    5.0221   20.9632 O   0  0  0  0  0  0  0  0  0  0  0  0
   20.8356    1.5756   24.6552 C   0  0  0  0  0  0  0  0  0  0  0  0
   21.9699    0.6962   24.8272 C   0  0  0  0  0  0  0  0  0  0  0  0
   20.0395    1.3620   23.3806 C   0  0  0  0  0  0  0  0  0  0  0  0
   22.0777   -0.5374   25.2736 O   0  0  0  0  0  0  0  0  0  0  0  0
   22.9980    1.3009   24.4896 O   0  0  0  0  0  0  0  0  0  0  0  0
   20.6642    0.4189   22.4805 O   0  0  0  0  0  0  0  0  0  0  0  0
   19.6696   -0.4189   21.8101 N   0  0  0  0  0  0  0  0  0  0  0  0
   17.7152    7.1288   22.9866 H   0  0  0  0  0  0  0  0  0  0  0  0
   18.5359    3.1289   26.3276 H   0  0  0  0  0  0  0  0  0  0  0  0
   18.6330    2.9153   24.4485 H   0  0  0  0  0  0  0  0  0  0  0  0
   19.8295    7.8406   27.7787 H   0  0  0  0  0  0  0  0  0  0  0  0
   21.0933    8.1996   26.5537 H   0  0  0  0  0  0  0  0  0  0  0  0
   19.5538    9.1251   26.5537 H   0  0  0  0  0  0  0  0  0  0  0  0
   20.2533    4.3792   27.3656 H   0  0  0  0  0  0  0  0  0  0  0  0
   17.8176    4.8955   21.9981 H   0  0  0  0  0  0  0  0  0  0  0  0
   18.1734    3.4679   23.0295 H   0  0  0  0  0  0  0  0  0  0  0  0
   19.0419    0.9838   23.6486 H   0  0  0  0  0  0  0  0  0  0  0  0
   19.9833    2.3291   22.8596 H   0  0  0  0  0  0  0  0  0  0  0  0
   19.0959   -0.9022   22.5160 H   0  0  0  0  0  0  0  0  0  0  0  0
   19.0645    0.1710   21.2212 H   0  0  0  0  0  0  0  0  0  0  0  0
  1  3  2  0
  1  8  1  0
  2  6  1  0
  2  7  1  0
  2  8  2  0
  3  5  1  0
  3 11  1  0
  4  5  1  0
  4 10  1  0
  5  6  2  0
  6  9  1  0
 10 17  2  3
 11 12  1  0
 12 13  1  0
 13 14  1  6
 13 15  2  0
 13 16  1  0
 17 18  1  0
 17 19  1  0
 18 20  2  0
 18 21  1  0
 19 22  1  0
 22 23  1  0
  1 24  1  0
  4 25  1  0
  4 26  1  0
  7 27  1  0
  7 28  1  0
  7 29  1  0
  9 30  1  0
 11 31  1  0
 11 32  1  0
 19 33  1  0
 19 34  1  0
 23 35  1  0
 23 36  1  0
M  CHG  3  14  -1  16  -1  21  -1
M  END
>  <filename_input>  (16) 
8AIE_M7L_docked.sdf

>  <pdb_id>  (16) 
8AIE_M7L

>  <pose_rank>  (16) 
15

>  <num_atoms_heavy>  (16) 
23

>  <num_torsions>  (16) 
8

>  <pose>  (16) 
[18.217695360299757, 6.725301670449272, 23.87808255605115, 0.6499373726752978, -2.9682200915375327, 1.285511633068821, 3.159531468593917, 7.025569962272244, 2.2257769543386785, 1.9126133365008597, -1.08242239172673, -3.177368314388368, -0.6042620277466366, 3.3360897479569966]

>  <energy>  (16) 
-583.8607033290865

>  <inter_energy>  (16) 
-581.9602330377427

>  <intra_energy>  (16) 
3.974446754595844

>  <rmsd>  (16) 
4.44782

>  <sdf_rank>  (16) 
0

$$$$

     RDKit          3D

 36 36  0  0  0  0  0  0  0  0999 V2000
   20.1911    0.8710   22.7986 C   0  0  0  0  0  0  0  0  0  0  0  0
   21.8541    1.2810   24.3380 C   0  0  0  0  0  0  0  0  0  0  0  0
   19.2520    1.6158   23.4967 C   0  0  0  0  0  0  0  0  0  0  0  0
   18.6634    3.0875   25.4956 C   0  0  0  0  0  0  0  0  0  0  0  0
   19.6413    2.2302   24.6966 C   0  0  0  0  0  0  0  0  0  0  0  0
   20.9768    2.0562   25.0995 C   0  0  0  0  0  0  0  0  0  0  0  0
   23.2728    1.0444   24.7628 C   0  0  0  0  0  0  0  0  0  0  0  0
   21.4607    0.7394   23.1915 N   0  0  0  0  0  0  0  0  0  0  0  0
   21.4545    2.6453   26.2318 O   0  0  0  0  0  0  0  0  0  0  0  0
   19.0040    4.4733   25.9189 N   0  0  0  0  0  0  0  0  0  0  0  0
   17.8510    1.7238   22.9823 C   0  0  0  0  0  0  0  0  0  0  0  0
   17.1186    0.5041   23.3021 O   0  0  0  0  0  0  0  0  0  0  0  0
   17.8700   -0.6261   24.1375 P   0  0  1  0  0  0  0  0  0  0  0  0
   18.7113   -1.4418   23.1536 O   0  0  0  0  0  0  0  0  0  0  0  0
   18.6222    0.1018   25.1999 O   0  0  0  0  0  0  0  0  0  0  0  0
   16.6896   -1.4343   24.6817 O   0  0  0  0  0  0  0  0  0  0  0  0
   18.5311    5.6788   25.3734 C   0  0  0  0  0  0  0  0  0  0  0  0
   18.9916    7.0358   25.5638 C   0  0  0  0  0  0  0  0  0  0  0  0
   17.3229    5.5274   24.4671 C   0  0  0  0  0  0  0  0  0  0  0  0
   19.1003    8.0600   24.7441 O   0  0  0  0  0  0  0  0  0  0  0  0
   19.3556    7.1718   26.7409 O   0  0  0  0  0  0  0  0  0  0  0  0
   17.5514    4.6057   23.3771 O   0  0  0  0  0  0  0  0  0  0  0  0
   16.3111    4.3081   22.6603 N   0  0  0  0  0  0  0  0  0  0  0  0
   19.8744    0.3634   21.8755 H   0  0  0  0  0  0  0  0  0  0  0  0
   17.7510    3.1655   24.8862 H   0  0  0  0  0  0  0  0  0  0  0  0
   18.6151    2.5542   26.4564 H   0  0  0  0  0  0  0  0  0  0  0  0
   23.3298    1.0348   25.8613 H   0  0  0  0  0  0  0  0  0  0  0  0
   23.6167    0.0764   24.3694 H   0  0  0  0  0  0  0  0  0  0  0  0
   23.9123    1.8482   24.3694 H   0  0  0  0  0  0  0  0  0  0  0  0
   20.8556    3.2005   26.7915 H   0  0  0  0  0  0  0  0  0  0  0  0
   17.3531    2.5843   23.4532 H   0  0  0  0  0  0  0  0  0  0  0  0
   17.8715    1.8629   21.8913 H   0  0  0  0  0  0  0  0  0  0  0  0
   16.4776    5.1592   25.0670 H   0  0  0  0  0  0  0  0  0  0  0  0
   17.1131    6.5138   24.0278 H   0  0  0  0  0  0  0  0  0  0  0  0
   15.5575    4.1273   23.3387 H   0  0  0  0  0  0  0  0  0  0  0  0
   16.0551    5.1116   22.0688 H   0  0  0  0  0  0  0  0  0  0  0  0
  1  3  2  0
  1  8  1  0
  2  6  1  0
  2  7  1  0
  2  8  2  0
  3  5  1  0
  3 11  1  0
  4  5  1  0
  4 10  1  0
  5  6  2  0
  6  9  1  0
 10 17  2  3
 11 12  1  0
 12 13  1  0
 13 14  1  6
 13 15  2  0
 13 16  1  0
 17 18  1  0
 17 19  1  0
 18 20  2  0
 18 21  1  0
 19 22  1  0
 22 23  1  0
  1 24  1  0
  4 25  1  0
  4 26  1  0
  7 27  1  0
  7 28  1  0
  7 29  1  0
  9 30  1  0
 11 31  1  0
 11 32  1  0
 19 33  1  0
 19 34  1  0
 23 35  1  0
 23 36  1  0
M  CHG  3  14  -1  16  -1  21  -1
M  END
>  <filename_input>  (17) 
8AIE_M7L_docked.sdf

>  <pdb_id>  (17) 
8AIE_M7L

>  <pose_rank>  (17) 
16

>  <num_atoms_heavy>  (17) 
23

>  <num_torsions>  (17) 
8

>  <pose>  (17) 
[20.191100383770113, 0.8709684147952428, 22.798581503250066, -1.3470076711265917, -0.9607988632722035, 2.0541013274538247, 5.107581778224785, -1.6034214663446182, -3.3123171708482575, -2.0554730186704906, -0.5954226194870184, -0.3502629344369709, -2.6900829140656595, -0.27321202599081923]

>  <energy>  (17) 
-332.86409476809604

>  <inter_energy>  (17) 
-566.4001608394586

>  <intra_energy>  (17) 
235.70084018095488

>  <rmsd>  (17) 
6.24175

>  <sdf_rank>  (17) 
0

$$$$

     RDKit          3D

 36 36  0  0  0  0  0  0  0  0999 V2000
   17.2925    6.0615   24.1417 C   0  0  0  0  0  0  0  0  0  0  0  0
   18.1203    5.6808   26.2568 C   0  0  0  0  0  0  0  0  0  0  0  0
   17.4818    4.7459   23.7449 C   0  0  0  0  0  0  0  0  0  0  0  0
   18.2352    2.3728   24.3003 C   0  0  0  0  0  0  0  0  0  0  0  0
   18.0301    3.8404   24.6658 C   0  0  0  0  0  0  0  0  0  0  0  0
   18.3362    4.3366   25.9450 C   0  0  0  0  0  0  0  0  0  0  0  0
   18.4741    6.2480   27.5992 C   0  0  0  0  0  0  0  0  0  0  0  0
   17.5709    6.5031   25.3710 N   0  0  0  0  0  0  0  0  0  0  0  0
   18.8383    3.5226   26.9160 O   0  0  0  0  0  0  0  0  0  0  0  0
   19.1800    1.5040   25.0540 N   0  0  0  0  0  0  0  0  0  0  0  0
   17.1327    4.3278   22.3512 C   0  0  0  0  0  0  0  0  0  0  0  0
   15.7780    3.7884   22.3287 O   0  0  0  0  0  0  0  0  0  0  0  0
   14.6239    4.6830   21.6903 P   0  0  1  0  0  0  0  0  0  0  0  0
   14.5595    4.3530   20.1976 O   0  0  0  0  0  0  0  0  0  0  0  0
   13.4000    4.3757   22.4851 O   0  0  0  0  0  0  0  0  0  0  0  0
   15.1640    6.0937   21.9374 O   0  0  0  0  0  0  0  0  0  0  0  0
   20.0424    0.5222   24.5378 C   0  0  0  0  0  0  0  0  0  0  0  0
   20.7957   -0.5101   25.2135 C   0  0  0  0  0  0  0  0  0  0  0  0
   20.2348    0.5828   23.0333 C   0  0  0  0  0  0  0  0  0  0  0  0
   20.7369   -1.8244   25.1711 O   0  0  0  0  0  0  0  0  0  0  0  0
   21.6144    0.0267   25.9738 O   0  0  0  0  0  0  0  0  0  0  0  0
   21.5527    0.1573   22.6187 O   0  0  0  0  0  0  0  0  0  0  0  0
   21.5074   -1.1397   21.9431 N   0  0  0  0  0  0  0  0  0  0  0  0
   16.8932    6.7766   23.4075 H   0  0  0  0  0  0  0  0  0  0  0  0
   17.2476    1.8942   24.3755 H   0  0  0  0  0  0  0  0  0  0  0  0
   18.7168    2.4421   23.3137 H   0  0  0  0  0  0  0  0  0  0  0  0
   18.0693    5.5990   28.3897 H   0  0  0  0  0  0  0  0  0  0  0  0
   19.5683    6.3052   27.6962 H   0  0  0  0  0  0  0  0  0  0  0  0
   18.0442    7.2559   27.6962 H   0  0  0  0  0  0  0  0  0  0  0  0
   19.0016    2.5653   26.7237 H   0  0  0  0  0  0  0  0  0  0  0  0
   17.1914    5.1988   21.6819 H   0  0  0  0  0  0  0  0  0  0  0  0
   17.8396    3.5559   22.0128 H   0  0  0  0  0  0  0  0  0  0  0  0
   19.4888   -0.0705   22.5571 H   0  0  0  0  0  0  0  0  0  0  0  0
   20.1141    1.6322   22.7263 H   0  0  0  0  0  0  0  0  0  0  0  0
   21.4811   -1.8921   22.6459 H   0  0  0  0  0  0  0  0  0  0  0  0
   20.6641   -1.1906   21.3539 H   0  0  0  0  0  0  0  0  0  0  0  0
  1  3  2  0
  1  8  1  0
  2  6  1  0
  2  7  1  0
  2  8  2  0
  3  5  1  0
  3 11  1  0
  4  5  1  0
  4 10  1  0
  5  6  2  0
  6  9  1  0
 10 17  2  3
 11 12  1  0
 12 13  1  0
 13 14  1  6
 13 15  2  0
 13 16  1  0
 17 18  1  0
 17 19  1  0
 18 20  2  0
 18 21  1  0
 19 22  1  0
 22 23  1  0
  1 24  1  0
  4 25  1  0
  4 26  1  0
  7 27  1  0
  7 28  1  0
  7 29  1  0
  9 30  1  0
 11 31  1  0
 11 32  1  0
 19 33  1  0
 19 34  1  0
 23 35  1  0
 23 36  1  0
M  CHG  3  14  -1  16  -1  21  -1
M  END
>  <filename_input>  (18) 
8AIE_M7L_docked.sdf

>  <pdb_id>  (18) 
8AIE_M7L

>  <pose_rank>  (18) 
17

>  <num_atoms_heavy>  (18) 
23

>  <num_torsions>  (18) 
8

>  <pose>  (18) 
[17.292467236370943, 6.061497441777929, 24.141746923254782, 0.6283838571904585, -3.4204319016799403, 0.7563973403356413, 3.8460698913021187, 6.675983638107188, 2.510586165800083, 1.5030092772756587, -1.6694146639818332, -3.3625373563302237, -0.8820227047844043, 2.7250090944039482]

>  <energy>  (18) 
-590.2639014624773

>  <inter_energy>  (18) 
-617.5358222847844

>  <intra_energy>  (18) 
32.98760317023328

>  <rmsd>  (18) 
4.64934

>  <sdf_rank>  (18) 
0

$$$$

     RDKit          3D

 36 36  0  0  0  0  0  0  0  0999 V2000
   20.1179    1.4660   26.2319 C   0  0  0  0  0  0  0  0  0  0  0  0
   20.0717    0.2890   24.2530 C   0  0  0  0  0  0  0  0  0  0  0  0
   19.2032    2.4081   25.7847 C   0  0  0  0  0  0  0  0  0  0  0  0
   17.6613    3.2686   23.9435 C   0  0  0  0  0  0  0  0  0  0  0  0
   18.6930    2.2820   24.4837 C   0  0  0  0  0  0  0  0  0  0  0  0
   19.1406    1.1863   23.7253 C   0  0  0  0  0  0  0  0  0  0  0  0
   20.5978   -0.8660   23.4540 C   0  0  0  0  0  0  0  0  0  0  0  0
   20.5103    0.4207   25.4991 N   0  0  0  0  0  0  0  0  0  0  0  0
   18.6726    0.9623   22.4650 O   0  0  0  0  0  0  0  0  0  0  0  0
   17.7497    4.7267   24.2289 N   0  0  0  0  0  0  0  0  0  0  0  0
   18.8058    3.5447   26.6731 C   0  0  0  0  0  0  0  0  0  0  0  0
   19.5260    4.7489   26.2761 O   0  0  0  0  0  0  0  0  0  0  0  0
   19.2394    6.0949   27.0800 P   0  0  1  0  0  0  0  0  0  0  0  0
   17.8009    6.5161   26.7724 O   0  0  0  0  0  0  0  0  0  0  0  0
   19.5408    5.7760   28.5053 O   0  0  0  0  0  0  0  0  0  0  0  0
   20.2576    7.0468   26.4475 O   0  0  0  0  0  0  0  0  0  0  0  0
   17.7447    5.7849   23.3044 C   0  0  0  0  0  0  0  0  0  0  0  0
   18.0658    7.1832   23.4814 C   0  0  0  0  0  0  0  0  0  0  0  0
   17.2976    5.3963   21.9068 C   0  0  0  0  0  0  0  0  0  0  0  0
   18.7870    7.8222   24.3782 O   0  0  0  0  0  0  0  0  0  0  0  0
   17.4986    7.8378   22.5947 O   0  0  0  0  0  0  0  0  0  0  0  0
   15.8688    5.5151   21.7217 O   0  0  0  0  0  0  0  0  0  0  0  0
   15.4937    5.3207   20.3209 N   0  0  0  0  0  0  0  0  0  0  0  0
   20.5410    1.5858   27.2402 H   0  0  0  0  0  0  0  0  0  0  0  0
   17.6788    3.1660   22.8485 H   0  0  0  0  0  0  0  0  0  0  0  0
   16.7512    2.9778   24.4886 H   0  0  0  0  0  0  0  0  0  0  0  0
   20.9555   -1.6511   24.1364 H   0  0  0  0  0  0  0  0  0  0  0  0
   19.7946   -1.2693   22.8199 H   0  0  0  0  0  0  0  0  0  0  0  0
   21.4293   -0.5246   22.8199 H   0  0  0  0  0  0  0  0  0  0  0  0
   18.0119    1.5816   22.0650 H   0  0  0  0  0  0  0  0  0  0  0  0
   17.7234    3.7188   26.5832 H   0  0  0  0  0  0  0  0  0  0  0  0
   19.0529    3.2976   27.7161 H   0  0  0  0  0  0  0  0  0  0  0  0
   17.8015    6.0522   21.1816 H   0  0  0  0  0  0  0  0  0  0  0  0
   17.5640    4.3398   21.7560 H   0  0  0  0  0  0  0  0  0  0  0  0
   14.5802    4.8473   20.2726 H   0  0  0  0  0  0  0  0  0  0  0  0
   15.4315    6.2357   19.8520 H   0  0  0  0  0  0  0  0  0  0  0  0
  1  3  2  0
  1  8  1  0
  2  6  1  0
  2  7  1  0
  2  8  2  0
  3  5  1  0
  3 11  1  0
  4  5  1  0
  4 10  1  0
  5  6  2  0
  6  9  1  0
 10 17  2  3
 11 12  1  0
 12 13  1  0
 13 14  1  1
 13 15  2  0
 13 16  1  0
 17 18  1  0
 17 19  1  0
 18 20  2  0
 18 21  1  0
 19 22  1  0
 22 23  1  0
  1 24  1  0
  4 25  1  0
  4 26  1  0
  7 27  1  0
  7 28  1  0
  7 29  1  0
  9 30  1  0
 11 31  1  0
 11 32  1  0
 19 33  1  0
 19 34  1  0
 23 35  1  0
 23 36  1  0
M  CHG  3  14  -1  16  -1  21  -1
M  END
>  <filename_input>  (19) 
8AIE_M7L_docked.sdf

>  <pdb_id>  (19) 
8AIE_M7L

>  <pose_rank>  (19) 
18

>  <num_atoms_heavy>  (19) 
23

>  <num_torsions>  (19) 
8

>  <pose>  (19) 
[20.117881084091636, 1.466003557795731, 26.231889052964537, -0.706217814341191, -1.809710282002411, -1.9364471019335825, 1.747313473538644, -1.2258477736286357, 0.8748039544165391, 0.4810007672220738, -0.5692862973096668, 6.329560851263894, 0.3968529705063184, -0.012643752540115159]

>  <energy>  (19) 
-582.8141858342274

>  <inter_energy>  (19) 
-653.7802376499487

>  <intra_energy>  (19) 
89.88632595798697

>  <rmsd>  (19) 
5.24648

>  <sdf_rank>  (19) 
0

$$$$

     RDKit          3D

 36 36  0  0  0  0  0  0  0  0999 V2000
   22.7703   -2.1502   23.1615 C   0  0  0  0  0  0  0  0  0  0  0  0
   22.0749   -2.5649   25.3175 C   0  0  0  0  0  0  0  0  0  0  0  0
   22.1122   -0.9307   23.0996 C   0  0  0  0  0  0  0  0  0  0  0  0
   20.6642    0.8416   24.2267 C   0  0  0  0  0  0  0  0  0  0  0  0
   21.3851   -0.5038   24.2211 C   0  0  0  0  0  0  0  0  0  0  0  0
   21.3907   -1.3477   25.3453 C   0  0  0  0  0  0  0  0  0  0  0  0
   22.0659   -3.5042   26.4865 C   0  0  0  0  0  0  0  0  0  0  0  0
   22.7786   -2.9236   24.2503 N   0  0  0  0  0  0  0  0  0  0  0  0
   20.7426   -0.9991   26.4924 O   0  0  0  0  0  0  0  0  0  0  0  0
   19.7782    1.2490   25.3511 N   0  0  0  0  0  0  0  0  0  0  0  0
   22.1618   -0.1173   21.8446 C   0  0  0  0  0  0  0  0  0  0  0  0
   23.2159   -0.6262   20.9749 O   0  0  0  0  0  0  0  0  0  0  0  0
   22.7882   -1.3554   19.6239 P   0  0  1  0  0  0  0  0  0  0  0  0
   21.3872   -1.9327   19.8371 O   0  0  0  0  0  0  0  0  0  0  0  0
   22.9177   -0.3206   18.5579 O   0  0  0  0  0  0  0  0  0  0  0  0
   23.8474   -2.4561   19.5266 O   0  0  0  0  0  0  0  0  0  0  0  0
   19.0780    2.4584   25.4982 C   0  0  0  0  0  0  0  0  0  0  0  0
   18.4067    3.0163   26.6504 C   0  0  0  0  0  0  0  0  0  0  0  0
   18.9880    3.2906   24.2319 C   0  0  0  0  0  0  0  0  0  0  0  0
   18.4868    4.1885   27.2438 O   0  0  0  0  0  0  0  0  0  0  0  0
   17.6471    2.1584   27.1235 O   0  0  0  0  0  0  0  0  0  0  0  0
   18.1204    4.4380   24.3752 O   0  0  0  0  0  0  0  0  0  0  0  0
   16.9295    4.3155   23.5341 N   0  0  0  0  0  0  0  0  0  0  0  0
   23.3122   -2.4975   22.2695 H   0  0  0  0  0  0  0  0  0  0  0  0
   21.4461    1.6119   24.1541 H   0  0  0  0  0  0  0  0  0  0  0  0
   19.9521    0.7293   23.3959 H   0  0  0  0  0  0  0  0  0  0  0  0
   22.0715   -2.9255   27.4219 H   0  0  0  0  0  0  0  0  0  0  0  0
   21.1618   -4.1295   26.4475 H   0  0  0  0  0  0  0  0  0  0  0  0
   22.9580   -4.1467   26.4475 H   0  0  0  0  0  0  0  0  0  0  0  0
   20.2493   -0.1421   26.5414 H   0  0  0  0  0  0  0  0  0  0  0  0
   21.1943   -0.1848   21.3257 H   0  0  0  0  0  0  0  0  0  0  0  0
   22.3709    0.9327   22.0971 H   0  0  0  0  0  0  0  0  0  0  0  0
   19.9967    3.6433   23.9709 H   0  0  0  0  0  0  0  0  0  0  0  0
   18.5627    2.6505   23.4449 H   0  0  0  0  0  0  0  0  0  0  0  0
   16.0947    4.2297   24.1312 H   0  0  0  0  0  0  0  0  0  0  0  0
   16.8418    5.1519   22.9394 H   0  0  0  0  0  0  0  0  0  0  0  0
  1  3  2  0
  1  8  1  0
  2  6  1  0
  2  7  1  0
  2  8  2  0
  3  5  1  0
  3 11  1  0
  4  5  1  0
  4 10  1  0
  5  6  2  0
  6  9  1  0
 10 17  2  3
 11 12  1  0
 12 13  1  0
 13 14  1  1
 13 15  2  0
 13 16  1  0
 17 18  1  0
 17 19  1  0
 18 20  2  0
 18 21  1  0
 19 22  1  0
 22 23  1  0
  1 24  1  0
  4 25  1  0
  4 26  1  0
  7 27  1  0
  7 28  1  0
  7 29  1  0
  9 30  1  0
 11 31  1  0
 11 32  1  0
 19 33  1  0
 19 34  1  0
 23 35  1  0
 23 36  1  0
M  CHG  3  14  -1  16  -1  21  -1
M  END
>  <filename_input>  (20) 
8AIE_M7L_docked.sdf

>  <pdb_id>  (20) 
8AIE_M7L

>  <pose_rank>  (20) 
19

>  <num_atoms_heavy>  (20) 
23

>  <num_torsions>  (20) 
8

>  <pose>  (20) 
[22.77029562213326, -2.15019560812801, 23.161500215966473, 3.32389980548857, 1.3661254966750955, -0.9514550440177486, -2.2017346863019838, -0.3154472443690682, 2.7228254043805826, 1.9352768792235762, 0.7360149580644566, -1.9701758348297995, -0.795586841353067, 0.7054400373180241]

>  <energy>  (20) 
-427.623216403308

>  <inter_energy>  (20) 
-456.29514768499155

>  <intra_energy>  (20) 
31.223077705431706

>  <rmsd>  (20) 
8.27854

>  <sdf_rank>  (20) 
0

$$$$

     RDKit          3D

 36 36  0  0  0  0  0  0  0  0999 V2000
   18.5593    5.8159   25.7432 C   0  0  0  0  0  0  0  0  0  0  0  0
   18.7749    4.6387   27.7108 C   0  0  0  0  0  0  0  0  0  0  0  0
   18.5001    4.6662   24.9695 C   0  0  0  0  0  0  0  0  0  0  0  0
   18.4991    2.1196   24.8191 C   0  0  0  0  0  0  0  0  0  0  0  0
   18.5879    3.4214   25.6109 C   0  0  0  0  0  0  0  0  0  0  0  0
   18.7149    3.4316   27.0109 C   0  0  0  0  0  0  0  0  0  0  0  0
   18.9504    4.6819   29.1995 C   0  0  0  0  0  0  0  0  0  0  0  0
   18.6577    5.7983   27.0750 N   0  0  0  0  0  0  0  0  0  0  0  0
   18.7705    2.2707   27.7228 O   0  0  0  0  0  0  0  0  0  0  0  0
   19.2168    0.8900   25.2531 N   0  0  0  0  0  0  0  0  0  0  0  0
   18.3775    4.7717   23.4819 C   0  0  0  0  0  0  0  0  0  0  0  0
   16.9846    4.5849   23.0929 O   0  0  0  0  0  0  0  0  0  0  0  0
   16.2863    5.7276   22.2289 P   0  0  1  0  0  0  0  0  0  0  0  0
   16.9157    5.6985   20.8345 O   0  0  0  0  0  0  0  0  0  0  0  0
   14.8251    5.4377   22.2970 O   0  0  0  0  0  0  0  0  0  0  0  0
   16.6882    6.9827   23.0074 O   0  0  0  0  0  0  0  0  0  0  0  0
   20.0907    0.0926   24.4949 C   0  0  0  0  0  0  0  0  0  0  0  0
   20.6245   -1.2241   24.7614 C   0  0  0  0  0  0  0  0  0  0  0  0
   20.5730    0.7373   23.2081 C   0  0  0  0  0  0  0  0  0  0  0  0
   20.0684   -2.4165   24.8015 O   0  0  0  0  0  0  0  0  0  0  0  0
   21.8341   -1.1207   25.0119 O   0  0  0  0  0  0  0  0  0  0  0  0
   21.9925    0.5675   22.9934 O   0  0  0  0  0  0  0  0  0  0  0  0
   22.2593   -0.3677   21.9002 N   0  0  0  0  0  0  0  0  0  0  0  0
   18.5233    6.7906   25.2347 H   0  0  0  0  0  0  0  0  0  0  0  0
   17.4320    1.8559   24.7758 H   0  0  0  0  0  0  0  0  0  0  0  0
   19.0196    2.3774   23.8850 H   0  0  0  0  0  0  0  0  0  0  0  0
   17.9936    4.4462   29.6885 H   0  0  0  0  0  0  0  0  0  0  0  0
   19.7079    3.9435   29.5011 H   0  0  0  0  0  0  0  0  0  0  0  0
   19.2783    5.6877   29.5011 H   0  0  0  0  0  0  0  0  0  0  0  0
   18.7301    1.3999   27.2535 H   0  0  0  0  0  0  0  0  0  0  0  0
   18.7189    5.7652   23.1557 H   0  0  0  0  0  0  0  0  0  0  0  0
   18.9970    3.9962   23.0077 H   0  0  0  0  0  0  0  0  0  0  0  0
   20.0333    0.2833   22.3639 H   0  0  0  0  0  0  0  0  0  0  0  0
   20.3768    1.8169   23.2851 H   0  0  0  0  0  0  0  0  0  0  0  0
   22.5209   -1.2848   22.2892 H   0  0  0  0  0  0  0  0  0  0  0  0
   21.4136   -0.4690   21.3210 H   0  0  0  0  0  0  0  0  0  0  0  0
  1  3  2  0
  1  8  1  0
  2  6  1  0
  2  7  1  0
  2  8  2  0
  3  5  1  0
  3 11  1  0
  4  5  1  0
  4 10  1  0
  5  6  2  0
  6  9  1  0
 10 17  2  3
 11 12  1  0
 12 13  1  0
 13 14  1  6
 13 15  2  0
 13 16  1  0
 17 18  1  0
 17 19  1  0
 18 20  2  0
 18 21  1  0
 19 22  1  0
 22 23  1  0
  1 24  1  0
  4 25  1  0
  4 26  1  0
  7 27  1  0
  7 28  1  0
  7 29  1  0
  9 30  1  0
 11 31  1  0
 11 32  1  0
 19 33  1  0
 19 34  1  0
 23 35  1  0
 23 36  1  0
M  CHG  3  14  -1  16  -1  21  -1
M  END
>  <filename_input>  (21) 
8AIE_M7L_docked.sdf

>  <pdb_id>  (21) 
8AIE_M7L

>  <pose_rank>  (21) 
20

>  <num_atoms_heavy>  (21) 
23

>  <num_torsions>  (21) 
8

>  <pose>  (21) 
[18.559291063195342, 5.8159256355145965, 25.743246157029844, -0.062344682445897, -3.697869562301669, 0.4003368540412741, 3.6509389269760235, 6.912851365321254, 1.6924470829751181, 1.285527598822023, -1.6675427064871657, -3.4455017293271037, -0.5615902397605004, 2.38350454278584]

>  <energy>  (21) 
-502.6704718622541

>  <inter_energy>  (21) 
-532.3151728843586

>  <intra_energy>  (21) 
36.3747479048011

>  <rmsd>  (21) 
4.74825

>  <sdf_rank>  (21) 
0

$$$$

     RDKit          3D

 36 36  0  0  0  0  0  0  0  0999 V2000
   22.5061   -2.8087   22.7592 C   0  0  0  0  0  0  0  0  0  0  0  0
   21.4494   -2.8801   24.8042 C   0  0  0  0  0  0  0  0  0  0  0  0
   22.0731   -1.5183   22.4917 C   0  0  0  0  0  0  0  0  0  0  0  0
   20.7891    0.5615   23.2222 C   0  0  0  0  0  0  0  0  0  0  0  0
   21.2724   -0.8692   23.4437 C   0  0  0  0  0  0  0  0  0  0  0  0
   20.9777   -1.5784   24.6211 C   0  0  0  0  0  0  0  0  0  0  0  0
   21.1183   -3.6761   26.0313 C   0  0  0  0  0  0  0  0  0  0  0  0
   22.2306   -3.4528   23.8962 N   0  0  0  0  0  0  0  0  0  0  0  0
   20.2376   -1.0153   25.6174 O   0  0  0  0  0  0  0  0  0  0  0  0
   20.4278    1.4498   24.3605 N   0  0  0  0  0  0  0  0  0  0  0  0
   22.4355   -0.8615   21.1970 C   0  0  0  0  0  0  0  0  0  0  0  0
   23.6450   -1.4747   20.6608 O   0  0  0  0  0  0  0  0  0  0  0  0
   23.7427   -1.6899   19.0847 P   0  0  1  0  0  0  0  0  0  0  0  0
   25.0664   -2.4025   18.7996 O   0  0  0  0  0  0  0  0  0  0  0  0
   22.5035   -2.4296   18.7091 O   0  0  0  0  0  0  0  0  0  0  0  0
   23.7564   -0.2439   18.5829 O   0  0  0  0  0  0  0  0  0  0  0  0
   19.2472    2.1927   24.5293 C   0  0  0  0  0  0  0  0  0  0  0  0
   18.9310    3.2462   25.4673 C   0  0  0  0  0  0  0  0  0  0  0  0
   18.1170    1.7972   23.5964 C   0  0  0  0  0  0  0  0  0  0  0  0
   18.8571    4.5544   25.3418 O   0  0  0  0  0  0  0  0  0  0  0  0
   18.7259    2.7407   26.5804 O   0  0  0  0  0  0  0  0  0  0  0  0
   17.7100    2.8730   22.7206 O   0  0  0  0  0  0  0  0  0  0  0  0
   16.4474    3.4690   23.1578 N   0  0  0  0  0  0  0  0  0  0  0  0
   23.1061   -3.3272   21.9969 H   0  0  0  0  0  0  0  0  0  0  0  0
   21.5891    1.0763   22.6698 H   0  0  0  0  0  0  0  0  0  0  0  0
   19.8185    0.4072   22.7281 H   0  0  0  0  0  0  0  0  0  0  0  0
   21.3633   -3.0872   26.9275 H   0  0  0  0  0  0  0  0  0  0  0  0
   20.0452   -3.9176   26.0332 H   0  0  0  0  0  0  0  0  0  0  0  0
   21.7037   -4.6074   26.0332 H   0  0  0  0  0  0  0  0  0  0  0  0
   19.8899   -0.0940   25.5155 H   0  0  0  0  0  0  0  0  0  0  0  0
   21.6117   -0.9874   20.4791 H   0  0  0  0  0  0  0  0  0  0  0  0
   22.6135    0.2105   21.3678 H   0  0  0  0  0  0  0  0  0  0  0  0
   18.4506    0.9495   22.9799 H   0  0  0  0  0  0  0  0  0  0  0  0
   17.2504    1.5326   24.2201 H   0  0  0  0  0  0  0  0  0  0  0  0
   16.4135    3.4850   24.1871 H   0  0  0  0  0  0  0  0  0  0  0  0
   16.3789    4.4313   22.7970 H   0  0  0  0  0  0  0  0  0  0  0  0
  1  3  2  0
  1  8  1  0
  2  6  1  0
  2  7  1  0
  2  8  2  0
  3  5  1  0
  3 11  1  0
  4  5  1  0
  4 10  1  0
  5  6  2  0
  6  9  1  0
 10 17  2  3
 11 12  1  0
 12 13  1  0
 13 14  1  1
 13 15  2  0
 13 16  1  0
 17 18  1  0
 17 19  1  0
 18 20  2  0
 18 21  1  0
 19 22  1  0
 22 23  1  0
  1 24  1  0
  4 25  1  0
  4 26  1  0
  7 27  1  0
  7 28  1  0
  7 29  1  0
  9 30  1  0
 11 31  1  0
 11 32  1  0
 19 33  1  0
 19 34  1  0
 23 35  1  0
 23 36  1  0
M  CHG  3  14  -1  16  -1  21  -1
M  END
>  <filename_input>  (22) 
8AIE_M7L_docked.sdf

>  <pdb_id>  (22) 
8AIE_M7L

>  <pose_rank>  (22) 
21

>  <num_atoms_heavy>  (22) 
23

>  <num_torsions>  (22) 
8

>  <pose>  (22) 
[22.506056282987196, -2.8087167000595996, 22.759196234200264, -2.5031312543527826, -0.8016839375894337, 0.4746418501048685, -20.511975183102468, 0.5986438285408553, 2.282281688830165, -3.139792222187948, 0.8952501202957251, -33.54985214911997, -31.670415938411992, -8.21571939185094]

>  <energy>  (22) 
-414.5722218216425

>  <inter_energy>  (22) 
-435.2655927493435

>  <intra_energy>  (22) 
19.056361899383376

>  <rmsd>  (22) 
8.49524

>  <sdf_rank>  (22) 
0

$$$$

     RDKit          3D

 36 36  0  0  0  0  0  0  0  0999 V2000
   23.7460   -2.2368   19.9412 C   0  0  0  0  0  0  0  0  0  0  0  0
   22.1123   -3.7517   19.3582 C   0  0  0  0  0  0  0  0  0  0  0  0
   23.0292   -1.7631   21.0303 C   0  0  0  0  0  0  0  0  0  0  0  0
   20.9445   -1.8630   22.4972 C   0  0  0  0  0  0  0  0  0  0  0  0
   21.7692   -2.3198   21.2968 C   0  0  0  0  0  0  0  0  0  0  0  0
   21.3275   -3.3415   20.4382 C   0  0  0  0  0  0  0  0  0  0  0  0
   21.6505   -4.8106   18.4020 C   0  0  0  0  0  0  0  0  0  0  0  0
   23.3136   -3.2247   19.1534 N   0  0  0  0  0  0  0  0  0  0  0  0
   20.1331   -3.9660   20.6406 O   0  0  0  0  0  0  0  0  0  0  0  0
   19.7483   -0.9917   22.3379 N   0  0  0  0  0  0  0  0  0  0  0  0
   23.5899   -0.6600   21.8716 C   0  0  0  0  0  0  0  0  0  0  0  0
   24.3628   -1.2288   22.9697 O   0  0  0  0  0  0  0  0  0  0  0  0
   25.2346   -0.2403   23.8655 P   0  0  1  0  0  0  0  0  0  0  0  0
   26.0145    0.6723   22.9167 O   0  0  0  0  0  0  0  0  0  0  0  0
   24.2615    0.4327   24.7734 O   0  0  0  0  0  0  0  0  0  0  0  0
   26.1551   -1.2240   24.5921 O   0  0  0  0  0  0  0  0  0  0  0  0
   19.0029   -0.3626   23.3493 C   0  0  0  0  0  0  0  0  0  0  0  0
   17.7121    0.2857   23.2942 C   0  0  0  0  0  0  0  0  0  0  0  0
   19.6833   -0.3339   24.7059 C   0  0  0  0  0  0  0  0  0  0  0  0
   17.2932    1.3812   22.6966 O   0  0  0  0  0  0  0  0  0  0  0  0
   16.9108   -0.3623   23.9832 O   0  0  0  0  0  0  0  0  0  0  0  0
   19.9105    1.0088   25.1912 O   0  0  0  0  0  0  0  0  0  0  0  0
   20.8427    1.7372   24.3304 N   0  0  0  0  0  0  0  0  0  0  0  0
   24.7189   -1.7759   19.7153 H   0  0  0  0  0  0  0  0  0  0  0  0
   20.5965   -2.7776   22.9995 H   0  0  0  0  0  0  0  0  0  0  0  0
   21.6470   -1.2022   23.0263 H   0  0  0  0  0  0  0  0  0  0  0  0
   21.2732   -5.6757   18.9671 H   0  0  0  0  0  0  0  0  0  0  0  0
   20.8465   -4.4074   17.7687 H   0  0  0  0  0  0  0  0  0  0  0  0
   22.4930   -5.1255   17.7687 H   0  0  0  0  0  0  0  0  0  0  0  0
   19.5557   -3.6963   21.3982 H   0  0  0  0  0  0  0  0  0  0  0  0
   24.2425   -0.0244   21.2550 H   0  0  0  0  0  0  0  0  0  0  0  0
   22.7661   -0.0554   22.2787 H   0  0  0  0  0  0  0  0  0  0  0  0
   19.0477   -0.8659   25.4291 H   0  0  0  0  0  0  0  0  0  0  0  0
   20.6658   -0.8157   24.5936 H   0  0  0  0  0  0  0  0  0  0  0  0
   21.5117    2.2600   24.9136 H   0  0  0  0  0  0  0  0  0  0  0  0
   21.3542    1.0696   23.7358 H   0  0  0  0  0  0  0  0  0  0  0  0
  1  3  2  0
  1  8  1  0
  2  6  1  0
  2  7  1  0
  2  8  2  0
  3  5  1  0
  3 11  1  0
  4  5  1  0
  4 10  1  0
  5  6  2  0
  6  9  1  0
 10 17  2  3
 11 12  1  0
 12 13  1  0
 13 14  1  6
 13 15  2  0
 13 16  1  0
 17 18  1  0
 17 19  1  0
 18 20  2  0
 18 21  1  0
 19 22  1  0
 22 23  1  0
  1 24  1  0
  4 25  1  0
  4 26  1  0
  7 27  1  0
  7 28  1  0
  7 29  1  0
  9 30  1  0
 11 31  1  0
 11 32  1  0
 19 33  1  0
 19 34  1  0
 23 35  1  0
 23 36  1  0
M  CHG  3  14  -1  16  -1  21  -1
M  END
>  <filename_input>  (23) 
8AIE_M7L_docked.sdf

>  <pdb_id>  (23) 
8AIE_M7L

>  <pose_rank>  (23) 
22

>  <num_atoms_heavy>  (23) 
23

>  <num_torsions>  (23) 
8

>  <pose>  (23) 
[23.745988766639684, -2.2368186498431957, 19.941229653332535, -1.1190556357908388, -0.8142478733898818, -0.7092105447483145, -3.3880280567049215, -0.14032674395940362, -0.6770598881660136, 1.0094978744086904, 1.5928850476071719, -3.308113678982021, -6.030859896957878, 0.33812443832222655]

>  <energy>  (23) 
-387.2795758264279

>  <inter_energy>  (23) 
-376.1240826701554

>  <intra_energy>  (23) 
0.6905384374318124

>  <rmsd>  (23) 
8.29192

>  <sdf_rank>  (23) 
0

$$$$

     RDKit          3D

 36 36  0  0  0  0  0  0  0  0999 V2000
   19.5678   -3.0199   20.9864 C   0  0  0  0  0  0  0  0  0  0  0  0
   20.5065   -4.9433   20.1360 C   0  0  0  0  0  0  0  0  0  0  0  0
   20.4934   -2.9287   22.0154 C   0  0  0  0  0  0  0  0  0  0  0  0
   22.5539   -3.8525   23.2023 C   0  0  0  0  0  0  0  0  0  0  0  0
   21.4885   -3.9132   22.1110 C   0  0  0  0  0  0  0  0  0  0  0  0
   21.4833   -4.9239   21.1340 C   0  0  0  0  0  0  0  0  0  0  0  0
   20.4511   -6.0304   19.1044 C   0  0  0  0  0  0  0  0  0  0  0  0
   19.5980   -3.9784   20.0569 N   0  0  0  0  0  0  0  0  0  0  0  0
   22.4327   -5.9016   21.1252 O   0  0  0  0  0  0  0  0  0  0  0  0
   23.2085   -2.5719   23.5855 N   0  0  0  0  0  0  0  0  0  0  0  0
   20.3974   -1.8156   23.0108 C   0  0  0  0  0  0  0  0  0  0  0  0
   19.0241   -1.7060   23.4890 O   0  0  0  0  0  0  0  0  0  0  0  0
   18.5127   -0.2800   23.9839 P   0  0  1  0  0  0  0  0  0  0  0  0
   18.8639    0.7370   22.8959 O   0  0  0  0  0  0  0  0  0  0  0  0
   17.0605   -0.4591   24.2725 O   0  0  0  0  0  0  0  0  0  0  0  0
   19.3568   -0.0775   25.2446 O   0  0  0  0  0  0  0  0  0  0  0  0
   24.1022   -1.8018   22.8220 C   0  0  0  0  0  0  0  0  0  0  0  0
   24.9521   -0.6983   23.2085 C   0  0  0  0  0  0  0  0  0  0  0  0
   24.1526   -2.1722   21.3508 C   0  0  0  0  0  0  0  0  0  0  0  0
   24.7288    0.3898   23.9147 O   0  0  0  0  0  0  0  0  0  0  0  0
   26.0798   -0.8753   22.7251 O   0  0  0  0  0  0  0  0  0  0  0  0
   23.7118   -1.1000   20.4871 O   0  0  0  0  0  0  0  0  0  0  0  0
   23.3735   -1.5943   19.1522 N   0  0  0  0  0  0  0  0  0  0  0  0
   18.7692   -2.2653   20.9332 H   0  0  0  0  0  0  0  0  0  0  0  0
   22.0836   -4.2452   24.1160 H   0  0  0  0  0  0  0  0  0  0  0  0
   23.3846   -4.4144   22.7504 H   0  0  0  0  0  0  0  0  0  0  0  0
   20.4013   -7.0086   19.6049 H   0  0  0  0  0  0  0  0  0  0  0  0
   19.5587   -5.8942   18.4758 H   0  0  0  0  0  0  0  0  0  0  0  0
   21.3527   -5.9856   18.4758 H   0  0  0  0  0  0  0  0  0  0  0  0
   23.1376   -5.9133   21.8203 H   0  0  0  0  0  0  0  0  0  0  0  0
   21.0652   -2.0244   23.8596 H   0  0  0  0  0  0  0  0  0  0  0  0
   20.6950   -0.8706   22.5329 H   0  0  0  0  0  0  0  0  0  0  0  0
   25.1892   -2.4306   21.0889 H   0  0  0  0  0  0  0  0  0  0  0  0
   23.4693   -3.0209   21.1997 H   0  0  0  0  0  0  0  0  0  0  0  0
   22.7938   -2.4415   19.2364 H   0  0  0  0  0  0  0  0  0  0  0  0
   22.8503   -0.8697   18.6402 H   0  0  0  0  0  0  0  0  0  0  0  0
  1  3  2  0
  1  8  1  0
  2  6  1  0
  2  7  1  0
  2  8  2  0
  3  5  1  0
  3 11  1  0
  4  5  1  0
  4 10  1  0
  5  6  2  0
  6  9  1  0
 10 17  2  3
 11 12  1  0
 12 13  1  0
 13 14  1  6
 13 15  2  0
 13 16  1  0
 17 18  1  0
 17 19  1  0
 18 20  2  0
 18 21  1  0
 19 22  1  0
 22 23  1  0
  1 24  1  0
  4 25  1  0
  4 26  1  0
  7 27  1  0
  7 28  1  0
  7 29  1  0
  9 30  1  0
 11 31  1  0
 11 32  1  0
 19 33  1  0
 19 34  1  0
 23 35  1  0
 23 36  1  0
M  CHG  3  14  -1  16  -1  21  -1
M  END
>  <filename_input>  (24) 
8AIE_M7L_docked.sdf

>  <pdb_id>  (24) 
8AIE_M7L

>  <pose_rank>  (24) 
23

>  <num_atoms_heavy>  (24) 
23

>  <num_torsions>  (24) 
8

>  <pose>  (24) 
[19.567766255121587, -3.0199050792394266, 20.986351245585993, 1.027319262292603, 0.5062869500205929, -5.0599049089919, -5.960085663769386, 1.648739580243609, 5.9492227395918444, 0.9595529756074478, -0.11784270880317861, 5.402681187773083, 0.8969063887789053, 8.31889360811959]

>  <energy>  (24) 
-291.2151773095058

>  <inter_energy>  (24) 
-312.67418582703493

>  <intra_energy>  (24) 
25.251422026163247

>  <rmsd>  (24) 
8.37797

>  <sdf_rank>  (24) 
0

$$$$

     RDKit          3D

 36 36  0  0  0  0  0  0  0  0999 V2000
   21.3390    1.1389   23.2430 C   0  0  0  0  0  0  0  0  0  0  0  0
   22.4042   -0.4877   22.0088 C   0  0  0  0  0  0  0  0  0  0  0  0
   20.9527    0.2468   24.2325 C   0  0  0  0  0  0  0  0  0  0  0  0
   20.9457   -2.1272   25.1661 C   0  0  0  0  0  0  0  0  0  0  0  0
   21.3144   -1.1020   24.0971 C   0  0  0  0  0  0  0  0  0  0  0  0
   22.0655   -1.4513   22.9613 C   0  0  0  0  0  0  0  0  0  0  0  0
   23.1697   -0.8373   20.7675 C   0  0  0  0  0  0  0  0  0  0  0  0
   22.0720    0.7858   22.1840 N   0  0  0  0  0  0  0  0  0  0  0  0
   22.4927   -2.7303   22.7639 O   0  0  0  0  0  0  0  0  0  0  0  0
   21.2340   -1.8920   26.6073 N   0  0  0  0  0  0  0  0  0  0  0  0
   20.1411    0.7253   25.3950 C   0  0  0  0  0  0  0  0  0  0  0  0
   20.3401    2.1591   25.5716 O   0  0  0  0  0  0  0  0  0  0  0  0
   19.0584    3.1056   25.5333 P   0  0  1  0  0  0  0  0  0  0  0  0
   19.5565    4.5511   25.4722 O   0  0  0  0  0  0  0  0  0  0  0  0
   18.2555    2.6369   24.3672 O   0  0  0  0  0  0  0  0  0  0  0  0
   18.4067    2.7857   26.8808 O   0  0  0  0  0  0  0  0  0  0  0  0
   21.0853   -2.7970   27.6719 C   0  0  0  0  0  0  0  0  0  0  0  0
   21.1105   -2.5736   29.0999 C   0  0  0  0  0  0  0  0  0  0  0  0
   20.9030   -4.2428   27.2470 C   0  0  0  0  0  0  0  0  0  0  0  0
   20.9645   -3.3824   30.1281 O   0  0  0  0  0  0  0  0  0  0  0  0
   21.2845   -1.3646   29.3113 O   0  0  0  0  0  0  0  0  0  0  0  0
   19.5627   -4.7314   27.4807 O   0  0  0  0  0  0  0  0  0  0  0  0
   19.5778   -6.0484   28.1180 N   0  0  0  0  0  0  0  0  0  0  0  0
   21.0259    2.1894   23.3351 H   0  0  0  0  0  0  0  0  0  0  0  0
   19.8589   -2.2779   25.0885 H   0  0  0  0  0  0  0  0  0  0  0  0
   21.6155   -2.9664   24.9270 H   0  0  0  0  0  0  0  0  0  0  0  0
   24.1376   -1.2795   21.0461 H   0  0  0  0  0  0  0  0  0  0  0  0
   22.5933   -1.5615   20.1730 H   0  0  0  0  0  0  0  0  0  0  0  0
   23.3396    0.0724   20.1730 H   0  0  0  0  0  0  0  0  0  0  0  0
   22.2678   -3.4345   23.4224 H   0  0  0  0  0  0  0  0  0  0  0  0
   19.0764    0.5237   25.2062 H   0  0  0  0  0  0  0  0  0  0  0  0
   20.4594    0.1968   26.3057 H   0  0  0  0  0  0  0  0  0  0  0  0
   21.1239   -4.3237   26.1724 H   0  0  0  0  0  0  0  0  0  0  0  0
   21.5883   -4.8544   27.8521 H   0  0  0  0  0  0  0  0  0  0  0  0
   19.5765   -5.9345   29.1416 H   0  0  0  0  0  0  0  0  0  0  0  0
   18.7429   -6.5785   27.8304 H   0  0  0  0  0  0  0  0  0  0  0  0
  1  3  2  0
  1  8  1  0
  2  6  1  0
  2  7  1  0
  2  8  2  0
  3  5  1  0
  3 11  1  0
  4  5  1  0
  4 10  1  0
  5  6  2  0
  6  9  1  0
 10 17  2  3
 11 12  1  0
 12 13  1  0
 13 14  1  6
 13 15  2  0
 13 16  1  0
 17 18  1  0
 17 19  1  0
 18 20  2  0
 18 21  1  0
 19 22  1  0
 22 23  1  0
  1 24  1  0
  4 25  1  0
  4 26  1  0
  7 27  1  0
  7 28  1  0
  7 29  1  0
  9 30  1  0
 11 31  1  0
 11 32  1  0
 19 33  1  0
 19 34  1  0
 23 35  1  0
 23 36  1  0
M  CHG  3  14  -1  16  -1  21  -1
M  END
>  <filename_input>  (25) 
8AIE_M7L_docked.sdf

>  <pdb_id>  (25) 
8AIE_M7L

>  <pose_rank>  (25) 
24

>  <num_atoms_heavy>  (25) 
23

>  <num_torsions>  (25) 
8

>  <pose>  (25) 
[21.338963224458436, 1.1389292803168622, 23.24295388213731, 0.2741680633367108, 4.857217599967324, -1.3481257783601197, 0.17227865142368506, -0.16185605011396031, -2.6662534500675306, -2.9847378068664137, 0.3816307317371805, -2.1193109434834967, -0.5876050702543201, 4.489718003295377]

>  <energy>  (25) 
-244.4278472039237

>  <inter_energy>  (25) 
-260.90598263036804

>  <intra_energy>  (25) 
13.165108880229933

>  <rmsd>  (25) 
6.31152

>  <sdf_rank>  (25) 
0

$$$$

     RDKit          3D

 36 36  0  0  0  0  0  0  0  0999 V2000
   17.4400    6.7490   23.0330 C   0  0  0  0  0  0  0  0  0  0  0  0
   16.2170    5.2480   21.7860 C   0  0  0  0  0  0  0  0  0  0  0  0
   17.9450    5.7640   23.8690 C   0  0  0  0  0  0  0  0  0  0  0  0
   18.1000    3.3010   24.5150 C   0  0  0  0  0  0  0  0  0  0  0  0
   17.5560    4.4340   23.6490 C   0  0  0  0  0  0  0  0  0  0  0  0
   16.6840    4.1930   22.5730 C   0  0  0  0  0  0  0  0  0  0  0  0
   15.2550    5.0270   20.6570 C   0  0  0  0  0  0  0  0  0  0  0  0
   16.6300    6.4910   22.0030 N   0  0  0  0  0  0  0  0  0  0  0  0
   16.2810    2.9290   22.2610 O   0  0  0  0  0  0  0  0  0  0  0  0
   19.5570    3.0070   24.5930 N   0  0  0  0  0  0  0  0  0  0  0  0
   18.8580    6.1350   24.9950 C   0  0  0  0  0  0  0  0  0  0  0  0
   18.0960    6.2110   26.2360 O   0  0  0  0  0  0  0  0  0  0  0  0
   18.8790    6.0210   27.6110 P   0  0  1  0  0  0  0  0  0  0  0  0
   19.3770    4.5750   27.6600 O   0  0  0  0  0  0  0  0  0  0  0  0
   19.9300    7.0790   27.6170 O   0  0  0  0  0  0  0  0  0  0  0  0
   17.7650    6.2730   28.6300 O   0  0  0  0  0  0  0  0  0  0  0  0
   20.1730    1.8360   25.0660 C   0  0  0  0  0  0  0  0  0  0  0  0
   21.5560    1.5740   25.3950 C   0  0  0  0  0  0  0  0  0  0  0  0
   19.2360    0.6520   25.2220 C   0  0  0  0  0  0  0  0  0  0  0  0
   22.6860    2.0860   24.9550 O   0  0  0  0  0  0  0  0  0  0  0  0
   21.6000    0.6690   26.2410 O   0  0  0  0  0  0  0  0  0  0  0  0
   18.6360    0.2430   23.9720 O   0  0  0  0  0  0  0  0  0  0  0  0
   17.3700   -0.4570   24.1910 N   0  0  0  0  0  0  0  0  0  0  0  0
   17.7206    7.7945   23.2281 H   0  0  0  0  0  0  0  0  0  0  0  0
   17.7715    3.5124   25.5433 H   0  0  0  0  0  0  0  0  0  0  0  0
   17.7076    2.4081   24.0063 H   0  0  0  0  0  0  0  0  0  0  0  0
   14.2588    4.7982   21.0636 H   0  0  0  0  0  0  0  0  0  0  0  0
   15.1992    5.9357   20.0397 H   0  0  0  0  0  0  0  0  0  0  0  0
   15.6014    4.1850   20.0397 H   0  0  0  0  0  0  0  0  0  0  0  0
   16.5960    2.1615   22.8012 H   0  0  0  0  0  0  0  0  0  0  0  0
   19.6452    5.3732   25.0945 H   0  0  0  0  0  0  0  0  0  0  0  0
   19.3170    7.1128   24.7870 H   0  0  0  0  0  0  0  0  0  0  0  0
   19.8055   -0.1951   25.6321 H   0  0  0  0  0  0  0  0  0  0  0  0
   18.4220    0.9606   25.8944 H   0  0  0  0  0  0  0  0  0  0  0  0
   17.2001   -0.5509   25.2025 H   0  0  0  0  0  0  0  0  0  0  0  0
   16.6024    0.0795   23.7623 H   0  0  0  0  0  0  0  0  0  0  0  0
  1  3  2  0
  1  8  1  0
  2  6  1  0
  2  7  1  0
  2  8  2  0
  3  5  1  0
  3 11  1  0
  4  5  1  0
  4 10  1  0
  5  6  2  0
  6  9  1  0
 10 17  2  3
 11 12  1  0
 12 13  1  0
 13 14  1  6
 13 15  2  0
 13 16  1  0
 17 18  1  0
 17 19  1  0
 18 20  2  0
 18 21  1  0
 19 22  1  0
 22 23  1  0
  1 24  1  0
  4 25  1  0
  4 26  1  0
  7 27  1  0
  7 28  1  0
  7 29  1  0
  9 30  1  0
 11 31  1  0
 11 32  1  0
 19 33  1  0
 19 34  1  0
 23 35  1  0
 23 36  1  0
M  CHG  3  14  -1  16  -1  21  -1
M  END
>  <filename_input>  (26) 
8AIE_M7L_docked.sdf

>  <pdb_id>  (26) 
8AIE_M7L

>  <pose_rank>  (26) 
25

>  <num_atoms_heavy>  (26) 
23

>  <num_torsions>  (26) 
8

>  <pose>  (26) 
[17.44, 6.749, 23.033, 1e-06, 1e-06, 1e-06, 0.0, 0.0, 0.0, 0.0, 0.0, 0.0, 0.0, 0.0]

>  <energy>  (26) 
-934.057503738728

>  <inter_energy>  (26) 
-935.9459687041159

>  <intra_energy>  (26) 
14.16590757020688

>  <rmsd>  (26) 
0.0

>  <sdf_rank>  (26) 
0

$$$$
