
     RDKit          3D

 30 30  0  0  0  0  0  0  0  0999 V2000
   10.6723   19.6546    8.8022 C   0  0  1  0  0  0  0  0  0  0  0  0
   11.4590   20.3654    7.7433 C   0  0  1  0  0  0  0  0  0  0  0  0
   10.3702   21.0562    6.9558 C   0  0  1  0  0  0  0  0  0  0  0  0
    9.1475   20.1385    7.0434 C   0  0  1  0  0  0  0  0  0  0  0  0
    8.8746   19.2911    5.7777 C   0  0  0  0  0  0  0  0  0  0  0  0
   10.5166   20.6041    9.8964 O   0  0  0  0  0  0  0  0  0  0  0  0
   12.2628   21.3261    8.4303 O   0  0  0  0  0  0  0  0  0  0  0  0
   10.2165   22.3097    7.6786 O   0  0  0  0  0  0  0  0  0  0  0  0
    9.4215   19.3151    8.1947 O   0  0  0  0  0  0  0  0  0  0  0  0
    8.4514   17.9442    6.0811 O   0  0  0  0  0  0  0  0  0  0  0  0
    6.9348   17.5761    6.4689 P   0  0  1  0  0  0  0  0  0  0  0  0
    6.4212   18.5523    7.5063 O   0  0  0  0  0  0  0  0  0  0  0  0
    6.2218   17.6980    5.1010 O   0  0  0  0  0  0  0  0  0  0  0  0
    6.9279   16.1576    6.9787 O   0  0  0  0  0  0  0  0  0  0  0  0
   10.3674   19.9785   11.3965 P   0  0  1  0  0  0  0  0  0  0  0  0
    9.6827   18.6124   11.5067 O   0  0  0  0  0  0  0  0  0  0  0  0
   11.7620   19.9363   11.9423 O   0  0  0  0  0  0  0  0  0  0  0  0
    9.3911   20.9689   12.2236 O   0  0  0  0  0  0  0  0  0  0  0  0
    8.3283   22.0172   11.4653 P   0  0  1  0  0  0  0  0  0  0  0  0
    7.5492   22.5620   12.6423 O   0  0  0  0  0  0  0  0  0  0  0  0
    9.2794   23.1213   11.0840 O   0  0  0  0  0  0  0  0  0  0  0  0
    7.6953   21.1141   10.3705 O   0  0  0  0  0  0  0  0  0  0  0  0
   11.1413   18.7397    9.1933 H   0  0  0  0  0  0  0  0  0  0  0  0
   12.1080   19.7427    7.1101 H   0  0  0  0  0  0  0  0  0  0  0  0
   10.5524   21.2498    5.8884 H   0  0  0  0  0  0  0  0  0  0  0  0
    8.2237   20.7293    7.1304 H   0  0  0  0  0  0  0  0  0  0  0  0
    8.0851   19.7826    5.1902 H   0  0  0  0  0  0  0  0  0  0  0  0
    9.8192   19.2212    5.2185 H   0  0  0  0  0  0  0  0  0  0  0  0
   12.1604   21.2038    9.4074 H   0  0  0  0  0  0  0  0  0  0  0  0
   10.2381   22.1338    8.6526 H   0  0  0  0  0  0  0  0  0  0  0  0
  1  2  1  0
  1  6  1  0
  1  9  1  0
  2  3  1  0
  2  7  1  0
  3  4  1  0
  3  8  1  0
  4  5  1  0
  4  9  1  0
  5 10  1  0
  6 15  1  0
 10 11  1  0
 11 12  2  0
 11 13  1  6
 11 14  1  0
 15 16  2  0
 15 17  1  1
 15 18  1  0
 18 19  1  0
 19 20  2  0
 19 21  1  6
 19 22  1  0
  1 23  1  1
  2 24  1  6
  3 25  1  6
  4 26  1  1
  5 27  1  0
  5 28  1  0
  7 29  1  0
  8 30  1  0
M  CHG  5  13  -1  14  -1  17  -1  21  -1  22  -1
M  END
>  <filename_input>  (1) 
8AP0_PRP_docked.sdf

>  <pdb_id>  (1) 
8AP0_PRP

>  <pose_rank>  (1) 
0

>  <num_atoms_heavy>  (1) 
22

>  <num_torsions>  (1) 
7

>  <pose>  (1) 
[10.672305645033916, 19.654555832948454, 8.802165385322843, -6.289882757628128, -0.2927649317019738, -0.41885299635828205, -0.1647348403568886, -0.23837198668452325, -1.5619091777810676, 0.6551185190296901, -0.8996837105224379, -4.765407174494874, 0.3757960943519324]

>  <energy>  (1) 
-701.5120756851227

>  <inter_energy>  (1) 
-720.5163157289259

>  <intra_energy>  (1) 
20.897021353707775

>  <rmsd>  (1) 
0.77767

>  <sdf_rank>  (1) 
0

$$$$

     RDKit          3D

 30 30  0  0  0  0  0  0  0  0999 V2000
    9.8789   20.6954    8.6262 C   0  0  1  0  0  0  0  0  0  0  0  0
   11.3364   20.8827    8.9193 C   0  0  1  0  0  0  0  0  0  0  0  0
   11.6648   19.6245    9.6885 C   0  0  1  0  0  0  0  0  0  0  0  0
   10.3878   19.2570   10.4496 C   0  0  1  0  0  0  0  0  0  0  0  0
   10.3978   19.6167   11.9546 C   0  0  0  0  0  0  0  0  0  0  0  0
    9.8102   19.9441    7.3795 O   0  0  0  0  0  0  0  0  0  0  0  0
   11.9952   20.8778    7.6516 O   0  0  0  0  0  0  0  0  0  0  0  0
   12.0021   18.6924    8.6232 O   0  0  0  0  0  0  0  0  0  0  0  0
    9.3513   19.9590    9.7345 O   0  0  0  0  0  0  0  0  0  0  0  0
    9.0938   19.9819   12.4560 O   0  0  0  0  0  0  0  0  0  0  0  0
    8.4630   21.4469   12.2518 P   0  0  1  0  0  0  0  0  0  0  0  0
    7.7116   21.8584   13.5003 O   0  0  0  0  0  0  0  0  0  0  0  0
    9.7265   22.2989   11.9835 O   0  0  0  0  0  0  0  0  0  0  0  0
    7.5611   21.3888   11.0454 O   0  0  0  0  0  0  0  0  0  0  0  0
    8.4763   20.1600    6.4641 P   0  0  1  0  0  0  0  0  0  0  0  0
    7.1955   20.5658    7.2003 O   0  0  0  0  0  0  0  0  0  0  0  0
    8.8661   21.1830    5.4413 O   0  0  0  0  0  0  0  0  0  0  0  0
    8.1124   18.7220    5.8177 O   0  0  0  0  0  0  0  0  0  0  0  0
    6.8910   17.7507    6.4249 P   0  0  1  0  0  0  0  0  0  0  0  0
    5.9518   17.6702    5.2414 O   0  0  0  0  0  0  0  0  0  0  0  0
    7.6018   16.4228    6.4482 O   0  0  0  0  0  0  0  0  0  0  0  0
    6.5257   18.4683    7.7539 O   0  0  0  0  0  0  0  0  0  0  0  0
    9.3056   21.6268    8.5085 H   0  0  0  0  0  0  0  0  0  0  0  0
   11.6160   21.7962    9.4645 H   0  0  0  0  0  0  0  0  0  0  0  0
   12.4783   19.6718   10.4274 H   0  0  0  0  0  0  0  0  0  0  0  0
   10.2497   18.1660   10.4729 H   0  0  0  0  0  0  0  0  0  0  0  0
   10.7598   18.7458   12.5208 H   0  0  0  0  0  0  0  0  0  0  0  0
   11.0550   20.4899   12.0799 H   0  0  0  0  0  0  0  0  0  0  0  0
   12.9756   20.8705    7.7893 H   0  0  0  0  0  0  0  0  0  0  0  0
   12.3112   17.8385    9.0174 H   0  0  0  0  0  0  0  0  0  0  0  0
  1  2  1  0
  1  6  1  0
  1  9  1  0
  2  3  1  0
  2  7  1  0
  3  4  1  0
  3  8  1  0
  4  5  1  0
  4  9  1  0
  5 10  1  0
  6 15  1  0
 10 11  1  0
 11 12  2  0
 11 13  1  6
 11 14  1  0
 15 16  2  0
 15 17  1  6
 15 18  1  0
 18 19  1  0
 19 20  2  0
 19 21  1  1
 19 22  1  0
  1 23  1  6
  2 24  1  1
  3 25  1  1
  4 26  1  1
  5 27  1  0
  5 28  1  0
  7 29  1  0
  8 30  1  0
M  CHG  5  13  -1  14  -1  17  -1  21  -1  22  -1
M  END
>  <filename_input>  (2) 
8AP0_PRP_docked.sdf

>  <pdb_id>  (2) 
8AP0_PRP

>  <pose_rank>  (2) 
1

>  <num_atoms_heavy>  (2) 
22

>  <num_torsions>  (2) 
7

>  <pose>  (2) 
[9.87887451468952, 20.695353034039965, 8.62619888352503, -2.5522104017864637, -1.2342314731973762, 0.7768372815566128, -0.043666396483783586, -3.065901165594491, 3.069431549788366, 0.633054252479487, 5.4580063870765985, 2.917238459768259, -0.5794123326757454]

>  <energy>  (2) 
-653.517177913405

>  <inter_energy>  (2) 
-722.4618389318086

>  <intra_energy>  (2) 
74.27744420019474

>  <rmsd>  (2) 
5.63064

>  <sdf_rank>  (2) 
0

$$$$

     RDKit          3D

 30 30  0  0  0  0  0  0  0  0999 V2000
    9.1767   20.1311    8.2582 C   0  0  1  0  0  0  0  0  0  0  0  0
   10.3084   21.1080    8.3593 C   0  0  1  0  0  0  0  0  0  0  0  0
   11.3537   20.3007    9.0930 C   0  0  1  0  0  0  0  0  0  0  0  0
   10.5779   19.3566   10.0159 C   0  0  1  0  0  0  0  0  0  0  0  0
   10.5402   19.7818   11.5032 C   0  0  0  0  0  0  0  0  0  0  0  0
    9.4087   19.3682    7.0386 O   0  0  0  0  0  0  0  0  0  0  0  0
   10.7273   21.3633    7.0175 O   0  0  0  0  0  0  0  0  0  0  0  0
   12.0398   19.6237    8.0029 O   0  0  0  0  0  0  0  0  0  0  0  0
    9.2600   19.3174    9.4328 O   0  0  0  0  0  0  0  0  0  0  0  0
    9.1980   19.9591   12.0054 O   0  0  0  0  0  0  0  0  0  0  0  0
    8.5135   21.4055   12.1648 P   0  0  1  0  0  0  0  0  0  0  0  0
    7.8451   21.5080   13.5197 O   0  0  0  0  0  0  0  0  0  0  0  0
    9.7298   22.3486   12.0043 O   0  0  0  0  0  0  0  0  0  0  0  0
    7.5271   21.5680   11.0367 O   0  0  0  0  0  0  0  0  0  0  0  0
    8.1401   18.5316    6.4428 P   0  0  1  0  0  0  0  0  0  0  0  0
    7.9912   17.0812    6.9131 O   0  0  0  0  0  0  0  0  0  0  0  0
    6.9341   19.3471    6.7962 O   0  0  0  0  0  0  0  0  0  0  0  0
    8.3724   18.3994    4.8470 O   0  0  0  0  0  0  0  0  0  0  0  0
    7.7822   19.5277    3.7597 P   0  0  1  0  0  0  0  0  0  0  0  0
    8.1675   20.8269    4.4327 O   0  0  0  0  0  0  0  0  0  0  0  0
    8.7781   19.3583    2.6424 O   0  0  0  0  0  0  0  0  0  0  0  0
    6.3088   19.0703    3.5733 O   0  0  0  0  0  0  0  0  0  0  0  0
    8.1757   20.5842    8.2056 H   0  0  0  0  0  0  0  0  0  0  0  0
   10.0900   22.0657    8.8545 H   0  0  0  0  0  0  0  0  0  0  0  0
   12.0754   20.8442    9.7205 H   0  0  0  0  0  0  0  0  0  0  0  0
   11.0692   18.3738   10.0681 H   0  0  0  0  0  0  0  0  0  0  0  0
   11.0390   19.0059   12.1024 H   0  0  0  0  0  0  0  0  0  0  0  0
   11.0516   20.7526   11.5810 H   0  0  0  0  0  0  0  0  0  0  0  0
   11.5727   21.8784    7.0281 H   0  0  0  0  0  0  0  0  0  0  0  0
   12.6931   18.9790    8.3739 H   0  0  0  0  0  0  0  0  0  0  0  0
  1  2  1  0
  1  6  1  0
  1  9  1  0
  2  3  1  0
  2  7  1  0
  3  4  1  0
  3  8  1  0
  4  5  1  0
  4  9  1  0
  5 10  1  0
  6 15  1  0
 10 11  1  0
 11 12  2  0
 11 13  1  1
 11 14  1  0
 15 16  2  0
 15 17  1  6
 15 18  1  0
 18 19  1  0
 19 20  2  0
 19 21  1  6
 19 22  1  0
  1 23  1  6
  2 24  1  1
  3 25  1  1
  4 26  1  1
  5 27  1  0
  5 28  1  0
  7 29  1  0
  8 30  1  0
M  CHG  5  13  -1  14  -1  17  -1  21  -1  22  -1
M  END
>  <filename_input>  (3) 
8AP0_PRP_docked.sdf

>  <pdb_id>  (3) 
8AP0_PRP

>  <pose_rank>  (3) 
2

>  <num_atoms_heavy>  (3) 
22

>  <num_torsions>  (3) 
7

>  <pose>  (3) 
[9.176721411468899, 20.131144819782264, 8.258213523264875, 2.2090580438314475, 2.0294526329819895, -1.0927288136748534, 12.08269573007673, 2.870534485708101, -3.0760549249597786, 13.020074498588995, 10.616752598823485, 12.128989886728476, -1.8479911972833962]

>  <energy>  (3) 
-648.6740048561267

>  <inter_energy>  (3) 
-648.6436541084893

>  <intra_energy>  (3) 
7.918116361365164

>  <rmsd>  (3) 
5.90845

>  <sdf_rank>  (3) 
0

$$$$

     RDKit          3D

 30 30  0  0  0  0  0  0  0  0999 V2000
    9.7727   20.0466    8.5517 C   0  0  1  0  0  0  0  0  0  0  0  0
   10.6786   21.1828    8.9174 C   0  0  1  0  0  0  0  0  0  0  0  0
   11.5860   20.5420    9.9414 C   0  0  1  0  0  0  0  0  0  0  0  0
   10.7307   19.4916   10.6557 C   0  0  1  0  0  0  0  0  0  0  0  0
   10.2225   19.9060   12.0573 C   0  0  0  0  0  0  0  0  0  0  0  0
   10.4404   19.3275    7.4745 O   0  0  0  0  0  0  0  0  0  0  0  0
   11.4102   21.4985    7.7317 O   0  0  0  0  0  0  0  0  0  0  0  0
   12.6370   19.9762    9.1091 O   0  0  0  0  0  0  0  0  0  0  0  0
    9.6452   19.2544    9.7370 O   0  0  0  0  0  0  0  0  0  0  0  0
    9.7119   21.2562   12.0957 O   0  0  0  0  0  0  0  0  0  0  0  0
    8.1402   21.5896   12.1611 P   0  0  1  0  0  0  0  0  0  0  0  0
    7.6453   21.4426   13.5846 O   0  0  0  0  0  0  0  0  0  0  0  0
    8.1060   23.0477   11.6439 O   0  0  0  0  0  0  0  0  0  0  0  0
    7.4361   20.6459   11.2200 O   0  0  0  0  0  0  0  0  0  0  0  0
    9.4868   18.4889    6.4492 P   0  0  1  0  0  0  0  0  0  0  0  0
    9.7821   18.6435    4.9538 O   0  0  0  0  0  0  0  0  0  0  0  0
    9.6061   17.0605    6.8849 O   0  0  0  0  0  0  0  0  0  0  0  0
    7.9891   19.0797    6.6112 O   0  0  0  0  0  0  0  0  0  0  0  0
    6.6301   18.1034    6.5508 P   0  0  1  0  0  0  0  0  0  0  0  0
    7.0816   16.9059    7.3577 O   0  0  0  0  0  0  0  0  0  0  0  0
    5.7173   18.8707    7.4713 O   0  0  0  0  0  0  0  0  0  0  0  0
    6.3342   18.0399    5.0266 O   0  0  0  0  0  0  0  0  0  0  0  0
    8.7705   20.3437    8.2090 H   0  0  0  0  0  0  0  0  0  0  0  0
   10.1956   22.0965    9.2941 H   0  0  0  0  0  0  0  0  0  0  0  0
   12.0197   21.1879   10.7191 H   0  0  0  0  0  0  0  0  0  0  0  0
   11.3254   18.5940   10.8808 H   0  0  0  0  0  0  0  0  0  0  0  0
    9.4176   19.2182   12.3558 H   0  0  0  0  0  0  0  0  0  0  0  0
   11.0794   19.8585   12.7454 H   0  0  0  0  0  0  0  0  0  0  0  0
   12.2905   21.8784    7.9784 H   0  0  0  0  0  0  0  0  0  0  0  0
   13.3454   19.5949    9.6860 H   0  0  0  0  0  0  0  0  0  0  0  0
  1  2  1  0
  1  6  1  0
  1  9  1  0
  2  3  1  0
  2  7  1  0
  3  4  1  0
  3  8  1  0
  4  5  1  0
  4  9  1  0
  5 10  1  0
  6 15  1  0
 10 11  1  0
 11 12  2  0
 11 13  1  6
 11 14  1  0
 15 16  2  0
 15 17  1  1
 15 18  1  0
 18 19  1  0
 19 20  2  0
 19 21  1  1
 19 22  1  0
  1 23  1  6
  2 24  1  1
  3 25  1  1
  4 26  1  1
  5 27  1  0
  5 28  1  0
  7 29  1  0
  8 30  1  0
M  CHG  5  13  -1  14  -1  17  -1  21  -1  22  -1
M  END
>  <filename_input>  (4) 
8AP0_PRP_docked.sdf

>  <pdb_id>  (4) 
8AP0_PRP

>  <pose_rank>  (4) 
3

>  <num_atoms_heavy>  (4) 
22

>  <num_torsions>  (4) 
7

>  <pose>  (4) 
[9.772694743322743, 20.046583691543773, 8.551690618487198, -2.288645928717304, -2.274841130259752, 0.8379732598093392, -1.8351231707848736, -6.1060391678498505, 0.6602044446340171, 0.6121600328112037, 1.993232700660657, -1.340172053314086, -1.9171936897626656]

>  <energy>  (4) 
-663.7819295878302

>  <inter_energy>  (4) 
-682.0433374679762

>  <intra_energy>  (4) 
28.06557563250478

>  <rmsd>  (4) 
5.49424

>  <sdf_rank>  (4) 
0

$$$$

     RDKit          3D

 30 30  0  0  0  0  0  0  0  0999 V2000
   10.7662   19.5258    9.9699 C   0  0  1  0  0  0  0  0  0  0  0  0
   11.0504   19.7464    8.5153 C   0  0  1  0  0  0  0  0  0  0  0  0
   10.0869   20.8589    8.1737 C   0  0  1  0  0  0  0  0  0  0  0  0
    8.8688   20.6461    9.0770 C   0  0  1  0  0  0  0  0  0  0  0  0
    7.6430   20.0077    8.3811 C   0  0  0  0  0  0  0  0  0  0  0  0
   11.6216   20.4565   10.6948 O   0  0  0  0  0  0  0  0  0  0  0  0
   12.3980   20.2156    8.4456 O   0  0  0  0  0  0  0  0  0  0  0  0
   10.8607   22.0468    8.5017 O   0  0  0  0  0  0  0  0  0  0  0  0
    9.3757   19.8179   10.1427 O   0  0  0  0  0  0  0  0  0  0  0  0
    7.9354   18.7229    7.7904 O   0  0  0  0  0  0  0  0  0  0  0  0
    7.9534   18.4810    6.2007 P   0  0  1  0  0  0  0  0  0  0  0  0
    8.0757   19.8087    5.4830 O   0  0  0  0  0  0  0  0  0  0  0  0
    9.1957   17.5734    6.0346 O   0  0  0  0  0  0  0  0  0  0  0  0
    6.6810   17.7594    5.8367 O   0  0  0  0  0  0  0  0  0  0  0  0
   11.1724   20.8333   12.2181 P   0  0  1  0  0  0  0  0  0  0  0  0
   10.2141   22.0176   12.3791 O   0  0  0  0  0  0  0  0  0  0  0  0
   10.5823   19.5734   12.7740 O   0  0  0  0  0  0  0  0  0  0  0  0
   12.5084   21.3073   12.9981 O   0  0  0  0  0  0  0  0  0  0  0  0
   13.4698   22.5622   12.4463 P   0  0  1  0  0  0  0  0  0  0  0  0
   14.4473   22.7202   13.5902 O   0  0  0  0  0  0  0  0  0  0  0  0
   14.2426   21.8445   11.3707 O   0  0  0  0  0  0  0  0  0  0  0  0
   12.4198   23.6437   12.0687 O   0  0  0  0  0  0  0  0  0  0  0  0
   10.9668   18.5069   10.3328 H   0  0  0  0  0  0  0  0  0  0  0  0
   10.9402   18.8744    7.8539 H   0  0  0  0  0  0  0  0  0  0  0  0
    9.7156   20.9175    7.1400 H   0  0  0  0  0  0  0  0  0  0  0  0
    8.4652   21.6107    9.4187 H   0  0  0  0  0  0  0  0  0  0  0  0
    6.8450   19.8772    9.1270 H   0  0  0  0  0  0  0  0  0  0  0  0
    7.3381   20.6823    7.5675 H   0  0  0  0  0  0  0  0  0  0  0  0
   12.7523   20.3389    9.3617 H   0  0  0  0  0  0  0  0  0  0  0  0
   10.9214   22.1399    9.4854 H   0  0  0  0  0  0  0  0  0  0  0  0
  1  2  1  0
  1  6  1  0
  1  9  1  0
  2  3  1  0
  2  7  1  0
  3  4  1  0
  3  8  1  0
  4  5  1  0
  4  9  1  0
  5 10  1  0
  6 15  1  0
 10 11  1  0
 11 12  2  0
 11 13  1  1
 11 14  1  0
 15 16  2  0
 15 17  1  1
 15 18  1  0
 18 19  1  0
 19 20  2  0
 19 21  1  6
 19 22  1  0
  1 23  1  1
  2 24  1  6
  3 25  1  6
  4 26  1  1
  5 27  1  0
  5 28  1  0
  7 29  1  0
  8 30  1  0
M  CHG  5  13  -1  14  -1  17  -1  21  -1  22  -1
M  END
>  <filename_input>  (5) 
8AP0_PRP_docked.sdf

>  <pdb_id>  (5) 
8AP0_PRP

>  <pose_rank>  (5) 
4

>  <num_atoms_heavy>  (5) 
22

>  <num_torsions>  (5) 
7

>  <pose>  (5) 
[10.766239435006485, 19.52579535716405, 9.969902218742364, 1.392621453445765, -4.081831037156884, 3.4444478690471656, -1.5995001824744353, 2.6754758558202747, -0.42463396911592904, -0.21316805895866747, -1.8938617328307044, -4.153043889720421, 0.37389077099622814]

>  <energy>  (5) 
-504.11204563206564

>  <inter_energy>  (5) 
-527.4373115590433

>  <intra_energy>  (5) 
28.3225014545449

>  <rmsd>  (5) 
3.01292

>  <sdf_rank>  (5) 
0

$$$$

     RDKit          3D

 30 30  0  0  0  0  0  0  0  0999 V2000
   11.6028   20.3432    9.7277 C   0  0  1  0  0  0  0  0  0  0  0  0
   11.7351   19.0337   10.4439 C   0  0  1  0  0  0  0  0  0  0  0  0
   11.4324   19.4260   11.8712 C   0  0  1  0  0  0  0  0  0  0  0  0
   11.9371   20.8637   12.0233 C   0  0  1  0  0  0  0  0  0  0  0  0
   13.2867   21.0072   12.7665 C   0  0  0  0  0  0  0  0  0  0  0  0
   10.1958   20.4679    9.3696 O   0  0  0  0  0  0  0  0  0  0  0  0
   10.6989   18.1971    9.9268 O   0  0  0  0  0  0  0  0  0  0  0  0
    9.9833   19.3039   11.9225 O   0  0  0  0  0  0  0  0  0  0  0  0
   12.0157   21.3424   10.6657 O   0  0  0  0  0  0  0  0  0  0  0  0
   14.3915   21.2888   11.8803 O   0  0  0  0  0  0  0  0  0  0  0  0
   14.9514   22.7761   11.6344 P   0  0  1  0  0  0  0  0  0  0  0  0
   14.4339   23.3050   10.3133 O   0  0  0  0  0  0  0  0  0  0  0  0
   14.3902   23.5307   12.8632 O   0  0  0  0  0  0  0  0  0  0  0  0
   16.4568   22.7049   11.6614 O   0  0  0  0  0  0  0  0  0  0  0  0
    9.8614   20.7829    7.8034 P   0  0  1  0  0  0  0  0  0  0  0  0
    9.0258   22.0347    7.5171 O   0  0  0  0  0  0  0  0  0  0  0  0
   11.1956   20.8498    7.1251 O   0  0  0  0  0  0  0  0  0  0  0  0
    8.9362   19.5686    7.2672 O   0  0  0  0  0  0  0  0  0  0  0  0
    7.2635   19.6425    7.2844 P   0  0  1  0  0  0  0  0  0  0  0  0
    6.8964   18.1759    7.3447 O   0  0  0  0  0  0  0  0  0  0  0  0
    7.0401   20.1570    8.6824 O   0  0  0  0  0  0  0  0  0  0  0  0
    6.9582   20.5463    6.0578 O   0  0  0  0  0  0  0  0  0  0  0  0
   12.2086   20.4360    8.8143 H   0  0  0  0  0  0  0  0  0  0  0  0
   12.6988   18.5128   10.3444 H   0  0  0  0  0  0  0  0  0  0  0  0
   11.8950   18.8350   12.6755 H   0  0  0  0  0  0  0  0  0  0  0  0
   11.2579   21.4485   12.6611 H   0  0  0  0  0  0  0  0  0  0  0  0
   13.2015   21.8292   13.4926 H   0  0  0  0  0  0  0  0  0  0  0  0
   13.4958   20.0455   13.2578 H   0  0  0  0  0  0  0  0  0  0  0  0
   10.1966   17.7917   10.6774 H   0  0  0  0  0  0  0  0  0  0  0  0
    9.6875   19.2789   12.8669 H   0  0  0  0  0  0  0  0  0  0  0  0
  1  2  1  0
  1  6  1  0
  1  9  1  0
  2  3  1  0
  2  7  1  0
  3  4  1  0
  3  8  1  0
  4  5  1  0
  4  9  1  0
  5 10  1  0
  6 15  1  0
 10 11  1  0
 11 12  2  0
 11 13  1  1
 11 14  1  0
 15 16  2  0
 15 17  1  6
 15 18  1  0
 18 19  1  0
 19 20  2  0
 19 21  1  1
 19 22  1  0
  1 23  1  6
  2 24  1  1
  3 25  1  1
  4 26  1  1
  5 27  1  0
  5 28  1  0
  7 29  1  0
  8 30  1  0
M  CHG  5  13  -1  14  -1  17  -1  21  -1  22  -1
M  END
>  <filename_input>  (6) 
8AP0_PRP_docked.sdf

>  <pdb_id>  (6) 
8AP0_PRP

>  <pose_rank>  (6) 
5

>  <num_atoms_heavy>  (6) 
22

>  <num_torsions>  (6) 
7

>  <pose>  (6) 
[11.602751663948354, 20.34316280809103, 9.727703625298556, 2.3361132816717265, -1.6680405994337781, -1.0807442688909645, -0.7853476660972266, 0.048664697456093434, -2.5159262961699005, 1.0776339344888293, 3.775502427805485, -3.5066665761955242, 0.9463555546399113]

>  <energy>  (6) 
-454.1098758434833

>  <inter_energy>  (6) 
-469.2106421943653

>  <intra_energy>  (6) 
23.1402770905038

>  <rmsd>  (6) 
6.59303

>  <sdf_rank>  (6) 
0

$$$$

     RDKit          3D

 30 30  0  0  0  0  0  0  0  0999 V2000
    7.5144   19.8354    8.7936 C   0  0  1  0  0  0  0  0  0  0  0  0
    6.9963   20.8312    9.7862 C   0  0  1  0  0  0  0  0  0  0  0  0
    8.2687   21.4998   10.2517 C   0  0  1  0  0  0  0  0  0  0  0  0
    9.3549   20.4228   10.1794 C   0  0  1  0  0  0  0  0  0  0  0  0
    9.7442   19.7951   11.5391 C   0  0  0  0  0  0  0  0  0  0  0  0
    7.5848   20.5354    7.5175 O   0  0  0  0  0  0  0  0  0  0  0  0
    6.1955   21.7490    9.0397 O   0  0  0  0  0  0  0  0  0  0  0  0
    8.4316   22.5646    9.2734 O   0  0  0  0  0  0  0  0  0  0  0  0
    8.8060   19.4460    9.2721 O   0  0  0  0  0  0  0  0  0  0  0  0
   11.1624   19.5540   11.6637 O   0  0  0  0  0  0  0  0  0  0  0  0
   12.2027   20.6968   12.1084 P   0  0  1  0  0  0  0  0  0  0  0  0
   13.1231   21.0279   10.9525 O   0  0  0  0  0  0  0  0  0  0  0  0
   11.2518   21.8561   12.4911 O   0  0  0  0  0  0  0  0  0  0  0  0
   12.9626   20.1794   13.3029 O   0  0  0  0  0  0  0  0  0  0  0  0
    8.2796   19.7338    6.2771 P   0  0  1  0  0  0  0  0  0  0  0  0
    7.6749   19.9599    4.8877 O   0  0  0  0  0  0  0  0  0  0  0  0
    9.7237   20.1309    6.3156 O   0  0  0  0  0  0  0  0  0  0  0  0
    8.0471   18.1557    6.5485 O   0  0  0  0  0  0  0  0  0  0  0  0
    6.5924   17.3952    6.2181 P   0  0  1  0  0  0  0  0  0  0  0  0
    6.6600   17.2532    4.7133 O   0  0  0  0  0  0  0  0  0  0  0  0
    6.8911   16.0188    6.7524 O   0  0  0  0  0  0  0  0  0  0  0  0
    5.5667   18.3117    6.9411 O   0  0  0  0  0  0  0  0  0  0  0  0
    6.8919   18.9371    8.6690 H   0  0  0  0  0  0  0  0  0  0  0  0
    6.3999   20.4315   10.6197 H   0  0  0  0  0  0  0  0  0  0  0  0
    8.2894   21.9108   11.2718 H   0  0  0  0  0  0  0  0  0  0  0  0
   10.3086   20.8548    9.8419 H   0  0  0  0  0  0  0  0  0  0  0  0
    9.4328   20.4787   12.3427 H   0  0  0  0  0  0  0  0  0  0  0  0
    9.2374   18.8213   11.6092 H   0  0  0  0  0  0  0  0  0  0  0  0
    5.6900   22.3286    9.6630 H   0  0  0  0  0  0  0  0  0  0  0  0
    8.5634   23.4263    9.7425 H   0  0  0  0  0  0  0  0  0  0  0  0
  1  2  1  0
  1  6  1  0
  1  9  1  0
  2  3  1  0
  2  7  1  0
  3  4  1  0
  3  8  1  0
  4  5  1  0
  4  9  1  0
  5 10  1  0
  6 15  1  0
 10 11  1  0
 11 12  2  0
 11 13  1  1
 11 14  1  0
 15 16  2  0
 15 17  1  6
 15 18  1  0
 18 19  1  0
 19 20  2  0
 19 21  1  1
 19 22  1  0
  1 23  1  6
  2 24  1  1
  3 25  1  1
  4 26  1  6
  5 27  1  0
  5 28  1  0
  7 29  1  0
  8 30  1  0
M  CHG  5  13  -1  14  -1  17  -1  21  -1  22  -1
M  END
>  <filename_input>  (7) 
8AP0_PRP_docked.sdf

>  <pdb_id>  (7) 
8AP0_PRP

>  <pose_rank>  (7) 
6

>  <num_atoms_heavy>  (7) 
22

>  <num_torsions>  (7) 
7

>  <pose>  (7) 
[7.51444358106297, 19.835412764550206, 8.79357601872737, -0.1845563385828807, -2.9707996196510402, 0.25409613408478926, -5.064164406139755, -0.2083815434672448, 3.5649268977185478, 12.608815655452256, -4.125390243675, -3.755280277288933, -1.3030579384931054]

>  <energy>  (7) 
-652.9299505606401

>  <inter_energy>  (7) 
-663.0824685248288

>  <intra_energy>  (7) 
28.873867972744545

>  <rmsd>  (7) 
6.38506

>  <sdf_rank>  (7) 
0

$$$$

     RDKit          3D

 30 30  0  0  0  0  0  0  0  0999 V2000
   10.2794   21.1884    8.3819 C   0  0  1  0  0  0  0  0  0  0  0  0
   10.9242   21.5675    7.0835 C   0  0  1  0  0  0  0  0  0  0  0  0
    9.7977   21.3514    6.1002 C   0  0  1  0  0  0  0  0  0  0  0  0
    8.9684   20.1947    6.6654 C   0  0  1  0  0  0  0  0  0  0  0  0
    9.2010   18.8276    5.9788 C   0  0  0  0  0  0  0  0  0  0  0  0
    9.6408   22.3978    8.8847 O   0  0  0  0  0  0  0  0  0  0  0  0
   11.2325   22.9584    7.1900 O   0  0  0  0  0  0  0  0  0  0  0  0
    9.1127   22.6348    6.1311 O   0  0  0  0  0  0  0  0  0  0  0  0
    9.3307   20.1659    8.0605 O   0  0  0  0  0  0  0  0  0  0  0  0
    7.9876   18.2457    5.4551 O   0  0  0  0  0  0  0  0  0  0  0  0
    6.8418   17.6280    6.3994 P   0  0  1  0  0  0  0  0  0  0  0  0
    6.5941   18.5517    7.5734 O   0  0  0  0  0  0  0  0  0  0  0  0
    5.6448   17.5368    5.4231 O   0  0  0  0  0  0  0  0  0  0  0  0
    7.3059   16.2645    6.8440 O   0  0  0  0  0  0  0  0  0  0  0  0
    8.6290   22.2214   10.1532 P   0  0  1  0  0  0  0  0  0  0  0  0
    7.7316   23.4171   10.4882 O   0  0  0  0  0  0  0  0  0  0  0  0
    7.8185   21.0010    9.8393 O   0  0  0  0  0  0  0  0  0  0  0  0
    9.5526   22.0492   11.4705 O   0  0  0  0  0  0  0  0  0  0  0  0
    9.6346   20.6115   12.3248 P   0  0  1  0  0  0  0  0  0  0  0  0
    9.4387   19.5932   11.2232 O   0  0  0  0  0  0  0  0  0  0  0  0
   11.1091   20.5744   12.6309 O   0  0  0  0  0  0  0  0  0  0  0  0
    8.6028   20.8424   13.4636 O   0  0  0  0  0  0  0  0  0  0  0  0
   10.9698   20.8090    9.1496 H   0  0  0  0  0  0  0  0  0  0  0  0
   11.8367   21.0186    6.8076 H   0  0  0  0  0  0  0  0  0  0  0  0
   10.0623   21.0836    5.0666 H   0  0  0  0  0  0  0  0  0  0  0  0
    7.8958   20.3631    6.4891 H   0  0  0  0  0  0  0  0  0  0  0  0
    9.9090   18.9680    5.1488 H   0  0  0  0  0  0  0  0  0  0  0  0
    9.5938   18.1389    6.7414 H   0  0  0  0  0  0  0  0  0  0  0  0
   11.2887   23.2117    8.1453 H   0  0  0  0  0  0  0  0  0  0  0  0
    8.9667   22.9084    7.0712 H   0  0  0  0  0  0  0  0  0  0  0  0
  1  2  1  0
  1  6  1  0
  1  9  1  0
  2  3  1  0
  2  7  1  0
  3  4  1  0
  3  8  1  0
  4  5  1  0
  4  9  1  0
  5 10  1  0
  6 15  1  0
 10 11  1  0
 11 12  2  0
 11 13  1  6
 11 14  1  0
 15 16  2  0
 15 17  1  6
 15 18  1  0
 18 19  1  0
 19 20  2  0
 19 21  1  1
 19 22  1  0
  1 23  1  1
  2 24  1  6
  3 25  1  6
  4 26  1  1
  5 27  1  0
  5 28  1  0
  7 29  1  0
  8 30  1  0
M  CHG  5  13  -1  14  -1  17  -1  21  -1  22  -1
M  END
>  <filename_input>  (8) 
8AP0_PRP_docked.sdf

>  <pdb_id>  (8) 
8AP0_PRP

>  <pose_rank>  (8) 
7

>  <num_atoms_heavy>  (8) 
22

>  <num_torsions>  (8) 
7

>  <pose>  (8) 
[10.279447089103654, 21.188373376669407, 8.38188424882692, -0.5328503887001907, -0.06925212466290334, 0.3840935337653262, -4.7652479492067386, 9.651988782428685, 6.304751502083873, -6.313575492720045, -3.2688609861987046, -0.8095600268757364, -2.085382933751182]

>  <energy>  (8) 
-547.2578066998177

>  <inter_energy>  (8) 
-603.646890034711

>  <intra_energy>  (8) 
60.95464779918041

>  <rmsd>  (8) 
2.37547

>  <sdf_rank>  (8) 
0

$$$$

     RDKit          3D

 30 30  0  0  0  0  0  0  0  0999 V2000
    9.6434   21.0788    9.5277 C   0  0  1  0  0  0  0  0  0  0  0  0
   11.0160   20.5568    9.2298 C   0  0  1  0  0  0  0  0  0  0  0  0
   11.3899   19.8970   10.5365 C   0  0  1  0  0  0  0  0  0  0  0  0
   10.6941   20.7139   11.6290 C   0  0  1  0  0  0  0  0  0  0  0  0
   11.6138   21.6900   12.4009 C   0  0  0  0  0  0  0  0  0  0  0  0
    8.7216   19.9942    9.2160 O   0  0  0  0  0  0  0  0  0  0  0  0
   10.8485   19.5747    8.2059 O   0  0  0  0  0  0  0  0  0  0  0  0
   10.8477   18.5570   10.3701 O   0  0  0  0  0  0  0  0  0  0  0  0
    9.6463   21.4064   10.9211 O   0  0  0  0  0  0  0  0  0  0  0  0
   13.0160   21.4789   12.1277 O   0  0  0  0  0  0  0  0  0  0  0  0
   13.9803   22.6442   11.5818 P   0  0  1  0  0  0  0  0  0  0  0  0
   13.3647   23.9963   11.8750 O   0  0  0  0  0  0  0  0  0  0  0  0
   15.2810   22.3737   12.3750 O   0  0  0  0  0  0  0  0  0  0  0  0
   14.1703   22.4210   10.1032 O   0  0  0  0  0  0  0  0  0  0  0  0
    7.4777   20.3501    8.2211 P   0  0  1  0  0  0  0  0  0  0  0  0
    6.3736   19.2953    8.0964 O   0  0  0  0  0  0  0  0  0  0  0  0
    6.9348   21.6523    8.7253 O   0  0  0  0  0  0  0  0  0  0  0  0
    8.0866   20.4520    6.7255 O   0  0  0  0  0  0  0  0  0  0  0  0
    8.1434   19.1371    5.6903 P   0  0  1  0  0  0  0  0  0  0  0  0
    6.8747   18.4026    6.0642 O   0  0  0  0  0  0  0  0  0  0  0  0
    7.8274   19.8195    4.3851 O   0  0  0  0  0  0  0  0  0  0  0  0
    9.5653   18.5681    5.9539 O   0  0  0  0  0  0  0  0  0  0  0  0
    9.3495   21.9680    8.9506 H   0  0  0  0  0  0  0  0  0  0  0  0
   11.7627   21.2941    8.9001 H   0  0  0  0  0  0  0  0  0  0  0  0
   12.4567   19.8482   10.8004 H   0  0  0  0  0  0  0  0  0  0  0  0
   10.3278   20.0569   12.4316 H   0  0  0  0  0  0  0  0  0  0  0  0
   11.3519   22.7192   12.1142 H   0  0  0  0  0  0  0  0  0  0  0  0
   11.4570   21.5103   13.4747 H   0  0  0  0  0  0  0  0  0  0  0  0
   10.6974   18.6884    8.6203 H   0  0  0  0  0  0  0  0  0  0  0  0
   10.6847   18.1541   11.2596 H   0  0  0  0  0  0  0  0  0  0  0  0
  1  2  1  0
  1  6  1  0
  1  9  1  0
  2  3  1  0
  2  7  1  0
  3  4  1  0
  3  8  1  0
  4  5  1  0
  4  9  1  0
  5 10  1  0
  6 15  1  0
 10 11  1  0
 11 12  2  0
 11 13  1  1
 11 14  1  0
 15 16  2  0
 15 17  1  1
 15 18  1  0
 18 19  1  0
 19 20  2  0
 19 21  1  6
 19 22  1  0
  1 23  1  6
  2 24  1  6
  3 25  1  1
  4 26  1  1
  5 27  1  0
  5 28  1  0
  7 29  1  0
  8 30  1  0
M  CHG  5  13  -1  14  -1  17  -1  21  -1  22  -1
M  END
>  <filename_input>  (9) 
8AP0_PRP_docked.sdf

>  <pdb_id>  (9) 
8AP0_PRP

>  <pose_rank>  (9) 
8

>  <num_atoms_heavy>  (9) 
22

>  <num_torsions>  (9) 
7

>  <pose>  (9) 
[9.643354539358954, 21.07884022857458, 9.52771430272041, 2.5519264421449503, 0.2125603163249672, -1.6623657514984682, -9.085244358182477, 6.789478754170511, -0.3937043737347714, -5.216630189959065, -3.3046159949790166, -3.5358362621438215, -2.0401721765296514]

>  <energy>  (9) 
-498.9438091135212

>  <inter_energy>  (9) 
-553.2259578416332

>  <intra_energy>  (9) 
53.971969433297545

>  <rmsd>  (9) 
6.44481

>  <sdf_rank>  (9) 
0

$$$$

     RDKit          3D

 30 30  0  0  0  0  0  0  0  0999 V2000
   10.6990   21.3378    7.9925 C   0  0  1  0  0  0  0  0  0  0  0  0
    9.9443   20.3367    8.8133 C   0  0  1  0  0  0  0  0  0  0  0  0
    9.9286   19.1325    7.9010 C   0  0  1  0  0  0  0  0  0  0  0  0
    9.8992   19.6911    6.4754 C   0  0  1  0  0  0  0  0  0  0  0  0
    8.5157   19.6447    5.7839 C   0  0  0  0  0  0  0  0  0  0  0  0
   12.1093   21.1240    8.2902 O   0  0  0  0  0  0  0  0  0  0  0  0
   10.7541   20.0808    9.9621 O   0  0  0  0  0  0  0  0  0  0  0  0
   11.1770   18.4695    8.2462 O   0  0  0  0  0  0  0  0  0  0  0  0
   10.3802   21.0415    6.6289 O   0  0  0  0  0  0  0  0  0  0  0  0
    8.0772   18.3008    5.4891 O   0  0  0  0  0  0  0  0  0  0  0  0
    6.9087   17.5670    6.3150 P   0  0  1  0  0  0  0  0  0  0  0  0
    5.8234   17.1061    5.3649 O   0  0  0  0  0  0  0  0  0  0  0  0
    7.6789   16.4028    6.9828 O   0  0  0  0  0  0  0  0  0  0  0  0
    6.3865   18.5486    7.3327 O   0  0  0  0  0  0  0  0  0  0  0  0
   13.0503   22.4543    8.3843 P   0  0  1  0  0  0  0  0  0  0  0  0
   14.1495   22.4449    9.4514 O   0  0  0  0  0  0  0  0  0  0  0  0
   13.6237   22.6248    7.0107 O   0  0  0  0  0  0  0  0  0  0  0  0
   12.0900   23.6785    8.8284 O   0  0  0  0  0  0  0  0  0  0  0  0
   12.6963   25.1240    9.4172 P   0  0  1  0  0  0  0  0  0  0  0  0
   13.8994   25.3338    8.5241 O   0  0  0  0  0  0  0  0  0  0  0  0
   11.6529   26.0763    8.8941 O   0  0  0  0  0  0  0  0  0  0  0  0
   12.8068   24.8416   10.9413 O   0  0  0  0  0  0  0  0  0  0  0  0
   10.4506   22.3892    8.1990 H   0  0  0  0  0  0  0  0  0  0  0  0
    8.9367   20.6295    9.1435 H   0  0  0  0  0  0  0  0  0  0  0  0
    9.0856   18.4316    7.9901 H   0  0  0  0  0  0  0  0  0  0  0  0
   10.5149   19.0747    5.8038 H   0  0  0  0  0  0  0  0  0  0  0  0
    7.7763   20.1172    6.4472 H   0  0  0  0  0  0  0  0  0  0  0  0
    8.6084   20.1781    4.8263 H   0  0  0  0  0  0  0  0  0  0  0  0
   10.2255   20.2479   10.7823 H   0  0  0  0  0  0  0  0  0  0  0  0
   11.2646   18.4230    9.2312 H   0  0  0  0  0  0  0  0  0  0  0  0
  1  2  1  0
  1  6  1  0
  1  9  1  0
  2  3  1  0
  2  7  1  0
  3  4  1  0
  3  8  1  0
  4  5  1  0
  4  9  1  0
  5 10  1  0
  6 15  1  0
 10 11  1  0
 11 12  2  0
 11 13  1  1
 11 14  1  0
 15 16  2  0
 15 17  1  6
 15 18  1  0
 18 19  1  0
 19 20  2  0
 19 21  1  1
 19 22  1  0
  1 23  1  1
  2 24  1  1
  3 25  1  1
  4 26  1  6
  5 27  1  0
  5 28  1  0
  7 29  1  0
  8 30  1  0
M  CHG  5  13  -1  14  -1  17  -1  21  -1  22  -1
M  END
>  <filename_input>  (10) 
8AP0_PRP_docked.sdf

>  <pdb_id>  (10) 
8AP0_PRP

>  <pose_rank>  (10) 
9

>  <num_atoms_heavy>  (10) 
22

>  <num_torsions>  (10) 
7

>  <pose>  (10) 
[10.699030053381794, 21.33775237754922, 7.992516100731117, 1.977653625696547, 0.921306081102224, 2.4978972178823744, -3.801723257580793, 0.2046327787739587, -4.855599434476382, 0.8174990375434864, 2.140264750949807, 4.0089664959315146, -1.9491692725950653]

>  <energy>  (10) 
-509.6389172804421

>  <inter_energy>  (10) 
-518.6247342270955

>  <intra_energy>  (10) 
10.907961877657275

>  <rmsd>  (10) 
3.90885

>  <sdf_rank>  (10) 
0

$$$$

     RDKit          3D

 30 30  0  0  0  0  0  0  0  0999 V2000
    9.7692   19.4306    8.5573 C   0  0  1  0  0  0  0  0  0  0  0  0
    9.8334   20.4840    9.6211 C   0  0  1  0  0  0  0  0  0  0  0  0
   10.7351   21.5161    8.9850 C   0  0  1  0  0  0  0  0  0  0  0  0
   11.7066   20.7304    8.0996 C   0  0  1  0  0  0  0  0  0  0  0  0
   13.1241   20.5431    8.6912 C   0  0  0  0  0  0  0  0  0  0  0  0
    8.6722   19.8112    7.6769 O   0  0  0  0  0  0  0  0  0  0  0  0
    8.5051   20.9941    9.7488 O   0  0  0  0  0  0  0  0  0  0  0  0
    9.7892   22.3320    8.2387 O   0  0  0  0  0  0  0  0  0  0  0  0
   11.0372   19.4702    7.8944 O   0  0  0  0  0  0  0  0  0  0  0  0
   13.6173   21.7246    9.3591 O   0  0  0  0  0  0  0  0  0  0  0  0
   14.3364   21.6742   10.7965 P   0  0  1  0  0  0  0  0  0  0  0  0
   15.4493   20.6475   10.7756 O   0  0  0  0  0  0  0  0  0  0  0  0
   14.8421   23.1289   10.9465 O   0  0  0  0  0  0  0  0  0  0  0  0
   13.2818   21.3404   11.8205 O   0  0  0  0  0  0  0  0  0  0  0  0
    8.9472   19.7038    6.0717 P   0  0  1  0  0  0  0  0  0  0  0  0
    9.0527   21.0245    5.3024 O   0  0  0  0  0  0  0  0  0  0  0  0
   10.2020   18.8953    5.9438 O   0  0  0  0  0  0  0  0  0  0  0  0
    7.6552   18.9788    5.4212 O   0  0  0  0  0  0  0  0  0  0  0  0
    6.7770   17.8113    6.2394 P   0  0  1  0  0  0  0  0  0  0  0  0
    7.8785   16.9167    6.7644 O   0  0  0  0  0  0  0  0  0  0  0  0
    6.3257   18.6133    7.4320 O   0  0  0  0  0  0  0  0  0  0  0  0
    5.7496   17.3557    5.1663 O   0  0  0  0  0  0  0  0  0  0  0  0
    9.5881   18.4099    8.9252 H   0  0  0  0  0  0  0  0  0  0  0  0
   10.1907   20.1637   10.6109 H   0  0  0  0  0  0  0  0  0  0  0  0
   11.3430   22.1468    9.6502 H   0  0  0  0  0  0  0  0  0  0  0  0
   11.9144   21.2789    7.1689 H   0  0  0  0  0  0  0  0  0  0  0  0
   13.0948   19.7168    9.4166 H   0  0  0  0  0  0  0  0  0  0  0  0
   13.8048   20.3302    7.8537 H   0  0  0  0  0  0  0  0  0  0  0  0
    8.2761   21.0820   10.7080 H   0  0  0  0  0  0  0  0  0  0  0  0
    9.2122   22.8297    8.8707 H   0  0  0  0  0  0  0  0  0  0  0  0
  1  2  1  0
  1  6  1  0
  1  9  1  0
  2  3  1  0
  2  7  1  0
  3  4  1  0
  3  8  1  0
  4  5  1  0
  4  9  1  0
  5 10  1  0
  6 15  1  0
 10 11  1  0
 11 12  2  0
 11 13  1  1
 11 14  1  0
 15 16  2  0
 15 17  1  1
 15 18  1  0
 18 19  1  0
 19 20  2  0
 19 21  1  1
 19 22  1  0
  1 23  1  1
  2 24  1  1
  3 25  1  1
  4 26  1  6
  5 27  1  0
  5 28  1  0
  7 29  1  0
  8 30  1  0
M  CHG  5  13  -1  14  -1  17  -1  21  -1  22  -1
M  END
>  <filename_input>  (11) 
8AP0_PRP_docked.sdf

>  <pdb_id>  (11) 
8AP0_PRP

>  <pose_rank>  (11) 
10

>  <num_atoms_heavy>  (11) 
22

>  <num_torsions>  (11) 
7

>  <pose>  (11) 
[9.769156766286653, 19.430637004196377, 8.557330851402037, -0.5896810197669702, 3.97072321964955, -0.7913859378063187, 2.9683581398196637, 0.6918262029547013, 0.15727071058437841, -0.6172792301498494, -2.274287163655281, 0.5706646485899343, -3.467163044176338]

>  <energy>  (11) 
-496.2405804539172

>  <inter_energy>  (11) 
-578.3507431174982

>  <intra_energy>  (11) 
77.62719849180682

>  <rmsd>  (11) 
6.34902

>  <sdf_rank>  (11) 
0

$$$$

     RDKit          3D

 30 30  0  0  0  0  0  0  0  0999 V2000
   12.2278   21.3699    8.2810 C   0  0  1  0  0  0  0  0  0  0  0  0
   11.7525   22.3111    7.2162 C   0  0  1  0  0  0  0  0  0  0  0  0
   10.2516   22.2013    7.3492 C   0  0  1  0  0  0  0  0  0  0  0  0
    9.9783   20.7651    7.8048 C   0  0  1  0  0  0  0  0  0  0  0  0
    9.4777   19.8114    6.6938 C   0  0  0  0  0  0  0  0  0  0  0  0
   12.3034   22.1522    9.5080 O   0  0  0  0  0  0  0  0  0  0  0  0
   12.1943   23.6099    7.6151 O   0  0  0  0  0  0  0  0  0  0  0  0
    9.9588   23.2043    8.3619 O   0  0  0  0  0  0  0  0  0  0  0  0
   11.2401   20.3365    8.3549 O   0  0  0  0  0  0  0  0  0  0  0  0
    8.0430   19.6473    6.6955 O   0  0  0  0  0  0  0  0  0  0  0  0
    7.3331   18.2045    6.6768 P   0  0  1  0  0  0  0  0  0  0  0  0
    6.8240   17.9034    5.2829 O   0  0  0  0  0  0  0  0  0  0  0  0
    8.4897   17.2789    7.1243 O   0  0  0  0  0  0  0  0  0  0  0  0
    6.2170   18.2343    7.6895 O   0  0  0  0  0  0  0  0  0  0  0  0
   13.1146   21.4837   10.7567 P   0  0  1  0  0  0  0  0  0  0  0  0
   12.3964   21.4614   12.1098 O   0  0  0  0  0  0  0  0  0  0  0  0
   13.4627   20.0999   10.3000 O   0  0  0  0  0  0  0  0  0  0  0  0
   14.4138   22.4107   11.0230 O   0  0  0  0  0  0  0  0  0  0  0  0
   14.2951   23.9622   11.6413 P   0  0  1  0  0  0  0  0  0  0  0  0
   13.7377   23.6959   13.0224 O   0  0  0  0  0  0  0  0  0  0  0  0
   15.7538   24.2664   11.8627 O   0  0  0  0  0  0  0  0  0  0  0  0
   13.4994   24.7024   10.5306 O   0  0  0  0  0  0  0  0  0  0  0  0
   13.2109   20.9139    8.0924 H   0  0  0  0  0  0  0  0  0  0  0  0
   12.1014   22.1132    6.1920 H   0  0  0  0  0  0  0  0  0  0  0  0
    9.6422   22.3760    6.4502 H   0  0  0  0  0  0  0  0  0  0  0  0
    9.1479   20.7375    8.5256 H   0  0  0  0  0  0  0  0  0  0  0  0
    9.7828   20.2185    5.7185 H   0  0  0  0  0  0  0  0  0  0  0  0
    9.9222   18.8232    6.8834 H   0  0  0  0  0  0  0  0  0  0  0  0
   12.2124   23.6632    8.6035 H   0  0  0  0  0  0  0  0  0  0  0  0
   10.0744   22.8082    9.2618 H   0  0  0  0  0  0  0  0  0  0  0  0
  1  2  1  0
  1  6  1  0
  1  9  1  0
  2  3  1  0
  2  7  1  0
  3  4  1  0
  3  8  1  0
  4  5  1  0
  4  9  1  0
  5 10  1  0
  6 15  1  0
 10 11  1  0
 11 12  2  0
 11 13  1  1
 11 14  1  0
 15 16  2  0
 15 17  1  6
 15 18  1  0
 18 19  1  0
 19 20  2  0
 19 21  1  1
 19 22  1  0
  1 23  1  6
  2 24  1  6
  3 25  1  6
  4 26  1  1
  5 27  1  0
  5 28  1  0
  7 29  1  0
  8 30  1  0
M  CHG  5  13  -1  14  -1  17  -1  21  -1  22  -1
M  END
>  <filename_input>  (12) 
8AP0_PRP_docked.sdf

>  <pdb_id>  (12) 
8AP0_PRP

>  <pose_rank>  (12) 
11

>  <num_atoms_heavy>  (12) 
22

>  <num_torsions>  (12) 
7

>  <pose>  (12) 
[12.227774646290639, 21.369906510349196, 8.280950748861743, -0.5383708027173661, -3.8486281897637062, -3.751209403954662, 1.9592531398290687, -3.9187215902901285, -2.53332770407852, -24.735164477454447, -15.181903454632536, -10.212756531696876, -1.5141487674098102]

>  <energy>  (12) 
-457.6312741624896

>  <inter_energy>  (12) 
-490.84659239709225

>  <intra_energy>  (12) 
22.86538572247307

>  <rmsd>  (12) 
3.62905

>  <sdf_rank>  (12) 
0

$$$$

     RDKit          3D

 30 30  0  0  0  0  0  0  0  0999 V2000
   10.3605   20.1200    7.4724 C   0  0  1  0  0  0  0  0  0  0  0  0
    9.5189   18.9012    7.2456 C   0  0  1  0  0  0  0  0  0  0  0  0
    8.2884   19.2142    8.0645 C   0  0  1  0  0  0  0  0  0  0  0  0
    8.7780   20.0569    9.2457 C   0  0  1  0  0  0  0  0  0  0  0  0
    8.9003   19.2939   10.5863 C   0  0  0  0  0  0  0  0  0  0  0  0
    9.9588   21.0838    6.4559 O   0  0  0  0  0  0  0  0  0  0  0  0
    9.2023   18.8966    5.8525 O   0  0  0  0  0  0  0  0  0  0  0  0
    7.4683   19.9529    7.1163 O   0  0  0  0  0  0  0  0  0  0  0  0
   10.0502   20.5654    8.7968 O   0  0  0  0  0  0  0  0  0  0  0  0
   10.2564   19.2321   11.0785 O   0  0  0  0  0  0  0  0  0  0  0  0
   10.7448   20.0344   12.3839 P   0  0  1  0  0  0  0  0  0  0  0  0
    9.5442   20.4456   13.2100 O   0  0  0  0  0  0  0  0  0  0  0  0
   11.6426   18.9844   13.0809 O   0  0  0  0  0  0  0  0  0  0  0  0
   11.5394   21.2259   11.9138 O   0  0  0  0  0  0  0  0  0  0  0  0
   10.3223   22.6489    6.7429 P   0  0  1  0  0  0  0  0  0  0  0  0
    9.5640   23.3324    7.8853 O   0  0  0  0  0  0  0  0  0  0  0  0
   11.8014   22.6691    6.9799 O   0  0  0  0  0  0  0  0  0  0  0  0
    9.8777   23.4828    5.4295 O   0  0  0  0  0  0  0  0  0  0  0  0
   10.2197   25.1115    5.2448 P   0  0  1  0  0  0  0  0  0  0  0  0
    9.1815   25.7429    6.1462 O   0  0  0  0  0  0  0  0  0  0  0  0
   11.5094   25.1960    6.0185 O   0  0  0  0  0  0  0  0  0  0  0  0
   10.2195   25.2778    3.6998 O   0  0  0  0  0  0  0  0  0  0  0  0
   11.4454   19.9562    7.3937 H   0  0  0  0  0  0  0  0  0  0  0  0
    9.9697   17.9342    7.5135 H   0  0  0  0  0  0  0  0  0  0  0  0
    7.7219   18.3696    8.4837 H   0  0  0  0  0  0  0  0  0  0  0  0
    8.0483   20.8423    9.4916 H   0  0  0  0  0  0  0  0  0  0  0  0
    8.2777   19.8024   11.3371 H   0  0  0  0  0  0  0  0  0  0  0  0
    8.5674   18.2607   10.4085 H   0  0  0  0  0  0  0  0  0  0  0  0
    8.2191   18.8825    5.7376 H   0  0  0  0  0  0  0  0  0  0  0  0
    6.8304   20.5275    7.6092 H   0  0  0  0  0  0  0  0  0  0  0  0
  1  2  1  0
  1  6  1  0
  1  9  1  0
  2  3  1  0
  2  7  1  0
  3  4  1  0
  3  8  1  0
  4  5  1  0
  4  9  1  0
  5 10  1  0
  6 15  1  0
 10 11  1  0
 11 12  2  0
 11 13  1  1
 11 14  1  0
 15 16  2  0
 15 17  1  1
 15 18  1  0
 18 19  1  0
 19 20  2  0
 19 21  1  1
 19 22  1  0
  1 23  1  1
  2 24  1  1
  3 25  1  1
  4 26  1  1
  5 27  1  0
  5 28  1  0
  7 29  1  0
  8 30  1  0
M  CHG  5  13  -1  14  -1  17  -1  21  -1  22  -1
M  END
>  <filename_input>  (13) 
8AP0_PRP_docked.sdf

>  <pdb_id>  (13) 
8AP0_PRP

>  <pose_rank>  (13) 
12

>  <num_atoms_heavy>  (13) 
22

>  <num_torsions>  (13) 
7

>  <pose>  (13) 
[10.360514664424057, 20.120033077632957, 7.4723838522848665, -1.6685631909081413, 1.4764704562176898, 0.22280274513159698, -19.422676580688098, -62.56265660119407, -25.558867122267298, -19.03792730215252, -26.68283629457105, -1.8832968630973903, 8.57940169721381]

>  <energy>  (13) 
-527.1829744048114

>  <inter_energy>  (13) 
-550.9212883251281

>  <intra_energy>  (13) 
26.139520486484628

>  <rmsd>  (13) 
5.81642

>  <sdf_rank>  (13) 
0

$$$$

     RDKit          3D

 30 30  0  0  0  0  0  0  0  0999 V2000
    9.7898   21.8432    8.6774 C   0  0  1  0  0  0  0  0  0  0  0  0
    8.6952   21.8210    9.7005 C   0  0  1  0  0  0  0  0  0  0  0  0
    8.3396   20.3533    9.7462 C   0  0  1  0  0  0  0  0  0  0  0  0
    8.5881   19.8210    8.3321 C   0  0  1  0  0  0  0  0  0  0  0  0
    7.3145   19.6201    7.4764 C   0  0  0  0  0  0  0  0  0  0  0  0
   11.0275   21.5907    9.4037 O   0  0  0  0  0  0  0  0  0  0  0  0
    9.2994   22.2258   10.9302 O   0  0  0  0  0  0  0  0  0  0  0  0
    9.2730   19.8420   10.7385 O   0  0  0  0  0  0  0  0  0  0  0  0
    9.4785   20.7957    7.7529 O   0  0  0  0  0  0  0  0  0  0  0  0
    7.4829   20.0436    6.1062 O   0  0  0  0  0  0  0  0  0  0  0  0
    7.8885   19.0290    4.9264 P   0  0  1  0  0  0  0  0  0  0  0  0
    6.8106   17.9781    4.7631 O   0  0  0  0  0  0  0  0  0  0  0  0
    8.0058   19.9853    3.7155 O   0  0  0  0  0  0  0  0  0  0  0  0
    9.2187   18.4196    5.2886 O   0  0  0  0  0  0  0  0  0  0  0  0
   12.1422   20.6624    8.6556 P   0  0  1  0  0  0  0  0  0  0  0  0
   12.1382   19.1700    9.0017 O   0  0  0  0  0  0  0  0  0  0  0  0
   11.9159   20.8843    7.1913 O   0  0  0  0  0  0  0  0  0  0  0  0
   13.5929   21.1728    9.1588 O   0  0  0  0  0  0  0  0  0  0  0  0
   13.9846   21.2976   10.7820 P   0  0  1  0  0  0  0  0  0  0  0  0
   15.4223   20.8262   10.7835 O   0  0  0  0  0  0  0  0  0  0  0  0
   14.0664   22.7958   10.9156 O   0  0  0  0  0  0  0  0  0  0  0  0
   12.8306   20.5112   11.4636 O   0  0  0  0  0  0  0  0  0  0  0  0
    9.8912   22.7898    8.1265 H   0  0  0  0  0  0  0  0  0  0  0  0
    7.8227   22.4610    9.5026 H   0  0  0  0  0  0  0  0  0  0  0  0
    7.3081   20.0829   10.0160 H   0  0  0  0  0  0  0  0  0  0  0  0
    9.0063   18.8042    8.3676 H   0  0  0  0  0  0  0  0  0  0  0  0
    7.0524   18.5518    7.4834 H   0  0  0  0  0  0  0  0  0  0  0  0
    6.5205   20.2406    7.9175 H   0  0  0  0  0  0  0  0  0  0  0  0
    8.7715   21.8721   11.6894 H   0  0  0  0  0  0  0  0  0  0  0  0
    8.9265   20.0319   11.6462 H   0  0  0  0  0  0  0  0  0  0  0  0
  1  2  1  0
  1  6  1  0
  1  9  1  0
  2  3  1  0
  2  7  1  0
  3  4  1  0
  3  8  1  0
  4  5  1  0
  4  9  1  0
  5 10  1  0
  6 15  1  0
 10 11  1  0
 11 12  2  0
 11 13  1  6
 11 14  1  0
 15 16  2  0
 15 17  1  6
 15 18  1  0
 18 19  1  0
 19 20  2  0
 19 21  1  1
 19 22  1  0
  1 23  1  6
  2 24  1  6
  3 25  1  1
  4 26  1  1
  5 27  1  0
  5 28  1  0
  7 29  1  0
  8 30  1  0
M  CHG  5  13  -1  14  -1  17  -1  21  -1  22  -1
M  END
>  <filename_input>  (14) 
8AP0_PRP_docked.sdf

>  <pdb_id>  (14) 
8AP0_PRP

>  <pose_rank>  (14) 
13

>  <num_atoms_heavy>  (14) 
22

>  <num_torsions>  (14) 
7

>  <pose>  (14) 
[9.78978740164794, 21.843171912536107, 8.677413683222378, -2.093681412417235, -1.6456908666223302, -2.515154365719393, -0.18640902767059392, 0.002016462658790583, 0.34712178983166425, -0.4997768347873073, -2.019747840320909, -4.205026898960779, -0.17614811538306935]

>  <energy>  (14) 
-442.17861174472307

>  <inter_energy>  (14) 
-475.33077282379344

>  <intra_energy>  (14) 
43.92311888691441

>  <rmsd>  (14) 
4.07485

>  <sdf_rank>  (14) 
0

$$$$

     RDKit          3D

 30 30  0  0  0  0  0  0  0  0999 V2000
   10.8679   19.9085    8.2799 C   0  0  1  0  0  0  0  0  0  0  0  0
    9.7617   19.6343    7.3071 C   0  0  1  0  0  0  0  0  0  0  0  0
    8.7407   20.6793    7.6921 C   0  0  1  0  0  0  0  0  0  0  0  0
    8.9061   20.8866    9.2003 C   0  0  1  0  0  0  0  0  0  0  0  0
    7.8344   20.1948   10.0763 C   0  0  0  0  0  0  0  0  0  0  0  0
   11.7092   20.9240    7.6601 O   0  0  0  0  0  0  0  0  0  0  0  0
   10.2984   19.9152    6.0133 O   0  0  0  0  0  0  0  0  0  0  0  0
    9.1554   21.8227    6.8934 O   0  0  0  0  0  0  0  0  0  0  0  0
   10.2299   20.3832    9.4700 O   0  0  0  0  0  0  0  0  0  0  0  0
    8.3275   19.8215   11.3812 O   0  0  0  0  0  0  0  0  0  0  0  0
    8.6158   20.8967   12.5418 P   0  0  1  0  0  0  0  0  0  0  0  0
    8.2222   22.2795   12.0666 O   0  0  0  0  0  0  0  0  0  0  0  0
    7.7280   20.3639   13.6918 O   0  0  0  0  0  0  0  0  0  0  0  0
   10.0817   20.8147   12.8829 O   0  0  0  0  0  0  0  0  0  0  0  0
   13.0173   21.4110    8.5061 P   0  0  1  0  0  0  0  0  0  0  0  0
   14.3817   20.9355    7.9965 O   0  0  0  0  0  0  0  0  0  0  0  0
   12.9333   22.9067    8.5282 O   0  0  0  0  0  0  0  0  0  0  0  0
   12.9000   20.7462    9.9766 O   0  0  0  0  0  0  0  0  0  0  0  0
   13.9932   21.0803   11.2001 P   0  0  1  0  0  0  0  0  0  0  0  0
   13.4447   20.2412   12.3334 O   0  0  0  0  0  0  0  0  0  0  0  0
   15.1899   20.3173   10.6953 O   0  0  0  0  0  0  0  0  0  0  0  0
   14.0048   22.6340   11.2200 O   0  0  0  0  0  0  0  0  0  0  0  0
   11.4923   19.0381    8.5302 H   0  0  0  0  0  0  0  0  0  0  0  0
    9.3452   18.6162    7.3086 H   0  0  0  0  0  0  0  0  0  0  0  0
    7.6797   20.4515    7.5124 H   0  0  0  0  0  0  0  0  0  0  0  0
    8.7724   21.9462    9.4639 H   0  0  0  0  0  0  0  0  0  0  0  0
    6.9882   20.8855   10.2058 H   0  0  0  0  0  0  0  0  0  0  0  0
    7.5347   19.2704    9.5610 H   0  0  0  0  0  0  0  0  0  0  0  0
   11.1714   20.3720    6.1102 H   0  0  0  0  0  0  0  0  0  0  0  0
    9.4241   22.5637    7.4924 H   0  0  0  0  0  0  0  0  0  0  0  0
  1  2  1  0
  1  6  1  0
  1  9  1  0
  2  3  1  0
  2  7  1  0
  3  4  1  0
  3  8  1  0
  4  5  1  0
  4  9  1  0
  5 10  1  0
  6 15  1  0
 10 11  1  0
 11 12  2  0
 11 13  1  1
 11 14  1  0
 15 16  2  0
 15 17  1  1
 15 18  1  0
 18 19  1  0
 19 20  2  0
 19 21  1  6
 19 22  1  0
  1 23  1  1
  2 24  1  6
  3 25  1  1
  4 26  1  6
  5 27  1  0
  5 28  1  0
  7 29  1  0
  8 30  1  0
M  CHG  5  13  -1  14  -1  17  -1  21  -1  22  -1
M  END
>  <filename_input>  (15) 
8AP0_PRP_docked.sdf

>  <pdb_id>  (15) 
8AP0_PRP

>  <pose_rank>  (15) 
14

>  <num_atoms_heavy>  (15) 
22

>  <num_torsions>  (15) 
7

>  <pose>  (15) 
[10.867946496030248, 19.908457310868727, 8.279925966471735, 2.131459258245313, -3.90236202548484, 1.0052457444153435, 0.018671324616760285, -0.38269380204787906, -0.6889070111781704, 0.16747172890515255, 1.5207146336830832, -1.9191427261462537, 0.4901205590896698]

>  <energy>  (15) 
-505.4147590257355

>  <inter_energy>  (15) 
-536.0707394982879

>  <intra_energy>  (15) 
34.2181924497281

>  <rmsd>  (15) 
5.21436

>  <sdf_rank>  (15) 
0

$$$$

     RDKit          3D

 30 30  0  0  0  0  0  0  0  0999 V2000
   12.6039   21.5587   10.8800 C   0  0  1  0  0  0  0  0  0  0  0  0
   13.8060   22.0339   10.1220 C   0  0  1  0  0  0  0  0  0  0  0  0
   14.9382   21.4425   10.9288 C   0  0  1  0  0  0  0  0  0  0  0  0
   14.4443   21.4113   12.3780 C   0  0  1  0  0  0  0  0  0  0  0  0
   15.0087   22.5310   13.2848 C   0  0  0  0  0  0  0  0  0  0  0  0
   12.2748   20.2477   10.3358 O   0  0  0  0  0  0  0  0  0  0  0  0
   13.7313   21.4118    8.8380 O   0  0  0  0  0  0  0  0  0  0  0  0
   15.0859   20.1243   10.3304 O   0  0  0  0  0  0  0  0  0  0  0  0
   13.0105   21.4921   12.2508 O   0  0  0  0  0  0  0  0  0  0  0  0
   15.1974   22.1078   14.6524 O   0  0  0  0  0  0  0  0  0  0  0  0
   16.1818   22.8700   15.6702 P   0  0  1  0  0  0  0  0  0  0  0  0
   16.2885   22.0863   16.9615 O   0  0  0  0  0  0  0  0  0  0  0  0
   17.5008   22.9095   14.8620 O   0  0  0  0  0  0  0  0  0  0  0  0
   15.6220   24.2514   15.8948 O   0  0  0  0  0  0  0  0  0  0  0  0
   10.8608   20.1202    9.5305 P   0  0  1  0  0  0  0  0  0  0  0  0
   10.7425   18.9685    8.5272 O   0  0  0  0  0  0  0  0  0  0  0  0
    9.8118   20.0265   10.5961 O   0  0  0  0  0  0  0  0  0  0  0  0
   10.7202   21.4472    8.6154 O   0  0  0  0  0  0  0  0  0  0  0  0
    9.2556   21.9378    7.9688 P   0  0  1  0  0  0  0  0  0  0  0  0
    8.3419   21.8253    9.1695 O   0  0  0  0  0  0  0  0  0  0  0  0
    9.5191   23.4132    7.8176 O   0  0  0  0  0  0  0  0  0  0  0  0
    9.1265   21.0314    6.7133 O   0  0  0  0  0  0  0  0  0  0  0  0
   11.7185   22.2064   10.7993 H   0  0  0  0  0  0  0  0  0  0  0  0
   13.9060   23.1211    9.9878 H   0  0  0  0  0  0  0  0  0  0  0  0
   15.9017   21.9733   10.9278 H   0  0  0  0  0  0  0  0  0  0  0  0
   14.7937   20.5016   12.8882 H   0  0  0  0  0  0  0  0  0  0  0  0
   15.9795   22.8535   12.8805 H   0  0  0  0  0  0  0  0  0  0  0  0
   14.2744   23.3500   13.2921 H   0  0  0  0  0  0  0  0  0  0  0  0
   13.6141   20.4353    8.9508 H   0  0  0  0  0  0  0  0  0  0  0  0
   15.1622   19.4439   11.0455 H   0  0  0  0  0  0  0  0  0  0  0  0
  1  2  1  0
  1  6  1  0
  1  9  1  0
  2  3  1  0
  2  7  1  0
  3  4  1  0
  3  8  1  0
  4  5  1  0
  4  9  1  0
  5 10  1  0
  6 15  1  0
 10 11  1  0
 11 12  2  0
 11 13  1  6
 11 14  1  0
 15 16  2  0
 15 17  1  1
 15 18  1  0
 18 19  1  0
 19 20  2  0
 19 21  1  6
 19 22  1  0
  1 23  1  1
  2 24  1  6
  3 25  1  1
  4 26  1  1
  5 27  1  0
  5 28  1  0
  7 29  1  0
  8 30  1  0
M  CHG  5  13  -1  14  -1  17  -1  21  -1  22  -1
M  END
>  <filename_input>  (16) 
8AP0_PRP_docked.sdf

>  <pdb_id>  (16) 
8AP0_PRP

>  <pose_rank>  (16) 
15

>  <num_atoms_heavy>  (16) 
22

>  <num_torsions>  (16) 
7

>  <pose>  (16) 
[12.603940935623156, 21.558747146001853, 10.879952496099476, -2.172836462953672, -1.3120846653321385, 1.984350094841741, 1.1181199820242658, 1.127999493698924, 2.521090745088842, 1.315382508094236, 2.3939440730491106, -1.6854282013514883, -1.823018016773117]

>  <energy>  (16) 
-311.6985812066422

>  <inter_energy>  (16) 
-336.4515485785514

>  <intra_energy>  (16) 
29.7196734463474

>  <rmsd>  (16) 
7.75756

>  <sdf_rank>  (16) 
0

$$$$

     RDKit          3D

 30 30  0  0  0  0  0  0  0  0999 V2000
    9.9762   22.6451    7.4052 C   0  0  1  0  0  0  0  0  0  0  0  0
   10.3447   24.0477    7.7824 C   0  0  1  0  0  0  0  0  0  0  0  0
    9.5366   24.8591    6.7969 C   0  0  1  0  0  0  0  0  0  0  0  0
    9.4498   24.0060    5.5281 C   0  0  1  0  0  0  0  0  0  0  0  0
   10.3995   24.4368    4.3849 C   0  0  0  0  0  0  0  0  0  0  0  0
    8.7742   22.3248    8.1640 O   0  0  0  0  0  0  0  0  0  0  0  0
    9.8510   24.2398    9.1091 O   0  0  0  0  0  0  0  0  0  0  0  0
    8.2667   25.0095    7.4913 O   0  0  0  0  0  0  0  0  0  0  0  0
    9.7373   22.6724    5.9942 O   0  0  0  0  0  0  0  0  0  0  0  0
   10.3367   25.8515    4.1023 O   0  0  0  0  0  0  0  0  0  0  0  0
    9.3497   26.4738    2.9958 P   0  0  1  0  0  0  0  0  0  0  0  0
    8.6089   25.3595    2.2870 O   0  0  0  0  0  0  0  0  0  0  0  0
    8.4327   27.3710    3.8611 O   0  0  0  0  0  0  0  0  0  0  0  0
   10.1895   27.2862    2.0435 O   0  0  0  0  0  0  0  0  0  0  0  0
    8.8735   21.0693    9.2022 P   0  0  1  0  0  0  0  0  0  0  0  0
    7.7927   19.9902    9.0814 O   0  0  0  0  0  0  0  0  0  0  0  0
   10.2424   20.4973    8.9934 O   0  0  0  0  0  0  0  0  0  0  0  0
    8.6560   21.6704   10.6886 O   0  0  0  0  0  0  0  0  0  0  0  0
    9.5212   21.1202   12.0124 P   0  0  1  0  0  0  0  0  0  0  0  0
    9.5811   19.6335   11.7382 O   0  0  0  0  0  0  0  0  0  0  0  0
   10.8919   21.6362   11.6602 O   0  0  0  0  0  0  0  0  0  0  0  0
    8.7337   21.7349   13.2027 O   0  0  0  0  0  0  0  0  0  0  0  0
   10.7438   21.8885    7.6247 H   0  0  0  0  0  0  0  0  0  0  0  0
   11.4153   24.2992    7.7589 H   0  0  0  0  0  0  0  0  0  0  0  0
    9.9281   25.8426    6.4981 H   0  0  0  0  0  0  0  0  0  0  0  0
    8.4604   24.1079    5.0583 H   0  0  0  0  0  0  0  0  0  0  0  0
   11.4306   24.1819    4.6710 H   0  0  0  0  0  0  0  0  0  0  0  0
   10.0824   23.9051    3.4757 H   0  0  0  0  0  0  0  0  0  0  0  0
   10.5448   23.9699    9.7617 H   0  0  0  0  0  0  0  0  0  0  0  0
    8.4211   24.9912    8.4690 H   0  0  0  0  0  0  0  0  0  0  0  0
  1  2  1  0
  1  6  1  0
  1  9  1  0
  2  3  1  0
  2  7  1  0
  3  4  1  0
  3  8  1  0
  4  5  1  0
  4  9  1  0
  5 10  1  0
  6 15  1  0
 10 11  1  0
 11 12  2  0
 11 13  1  1
 11 14  1  0
 15 16  2  0
 15 17  1  1
 15 18  1  0
 18 19  1  0
 19 20  2  0
 19 21  1  6
 19 22  1  0
  1 23  1  6
  2 24  1  1
  3 25  1  6
  4 26  1  6
  5 27  1  0
  5 28  1  0
  7 29  1  0
  8 30  1  0
M  CHG  5  13  -1  14  -1  17  -1  21  -1  22  -1
M  END
>  <filename_input>  (17) 
8AP0_PRP_docked.sdf

>  <pdb_id>  (17) 
8AP0_PRP

>  <pose_rank>  (17) 
16

>  <num_atoms_heavy>  (17) 
22

>  <num_torsions>  (17) 
7

>  <pose>  (17) 
[9.976195441184547, 22.645148214158027, 7.405199937142883, -3.0307766155732425, 3.26035418385782, -2.410591918462208, 2.8160491531495264, 3.018155889817608, 5.481223790531955, 1.2179053572278988, 3.693239095520526, 4.961801137417308, 2.959501040708378]

>  <energy>  (17) 
-378.5495247754331

>  <inter_energy>  (17) 
-394.85066946395534

>  <intra_energy>  (17) 
20.123638850526298

>  <rmsd>  (17) 
5.68548

>  <sdf_rank>  (17) 
0

$$$$

     RDKit          3D

 30 30  0  0  0  0  0  0  0  0999 V2000
   14.5024   22.0022   12.4009 C   0  0  1  0  0  0  0  0  0  0  0  0
   14.8100   20.7585   11.6239 C   0  0  1  0  0  0  0  0  0  0  0  0
   13.5994   20.6425   10.7274 C   0  0  1  0  0  0  0  0  0  0  0  0
   12.4316   21.2259   11.5279 C   0  0  1  0  0  0  0  0  0  0  0  0
   11.4818   20.1781   12.1559 C   0  0  0  0  0  0  0  0  0  0  0  0
   15.0138   23.1120   11.6072 O   0  0  0  0  0  0  0  0  0  0  0  0
   15.9747   21.0562   10.8520 O   0  0  0  0  0  0  0  0  0  0  0  0
   13.9874   21.4507    9.5813 O   0  0  0  0  0  0  0  0  0  0  0  0
   13.0772   22.0372   12.5297 O   0  0  0  0  0  0  0  0  0  0  0  0
   10.1979   20.7283   12.5221 O   0  0  0  0  0  0  0  0  0  0  0  0
    8.9138   20.6555   11.5568 P   0  0  1  0  0  0  0  0  0  0  0  0
    7.6912   21.1607   12.2937 O   0  0  0  0  0  0  0  0  0  0  0  0
    9.3486   21.5682   10.3853 O   0  0  0  0  0  0  0  0  0  0  0  0
    8.7550   19.2217   11.1196 O   0  0  0  0  0  0  0  0  0  0  0  0
   14.7038   24.6157   12.1609 P   0  0  1  0  0  0  0  0  0  0  0  0
   13.2290   25.0080   12.2962 O   0  0  0  0  0  0  0  0  0  0  0  0
   15.4149   24.7015   13.4768 O   0  0  0  0  0  0  0  0  0  0  0  0
   15.2801   25.6504   11.0585 O   0  0  0  0  0  0  0  0  0  0  0  0
   16.6734   26.5440   11.3115 P   0  0  1  0  0  0  0  0  0  0  0  0
   17.7018   25.4518   11.5085 O   0  0  0  0  0  0  0  0  0  0  0  0
   16.9119   27.0552    9.9147 O   0  0  0  0  0  0  0  0  0  0  0  0
   16.2417   27.5200   12.4409 O   0  0  0  0  0  0  0  0  0  0  0  0
   14.9545   22.0475   13.4027 H   0  0  0  0  0  0  0  0  0  0  0  0
   14.9918   19.8446   12.2084 H   0  0  0  0  0  0  0  0  0  0  0  0
   13.2962   19.6366   10.4013 H   0  0  0  0  0  0  0  0  0  0  0  0
   11.7531   21.7895   10.8707 H   0  0  0  0  0  0  0  0  0  0  0  0
   11.3218   19.3692   11.4278 H   0  0  0  0  0  0  0  0  0  0  0  0
   11.9582   19.8126   13.0776 H   0  0  0  0  0  0  0  0  0  0  0  0
   16.7324   21.2499   11.4591 H   0  0  0  0  0  0  0  0  0  0  0  0
   14.3937   22.2967    9.8964 H   0  0  0  0  0  0  0  0  0  0  0  0
  1  2  1  0
  1  6  1  0
  1  9  1  0
  2  3  1  0
  2  7  1  0
  3  4  1  0
  3  8  1  0
  4  5  1  0
  4  9  1  0
  5 10  1  0
  6 15  1  0
 10 11  1  0
 11 12  2  0
 11 13  1  6
 11 14  1  0
 15 16  2  0
 15 17  1  1
 15 18  1  0
 18 19  1  0
 19 20  2  0
 19 21  1  6
 19 22  1  0
  1 23  1  1
  2 24  1  1
  3 25  1  6
  4 26  1  6
  5 27  1  0
  5 28  1  0
  7 29  1  0
  8 30  1  0
M  CHG  5  13  -1  14  -1  17  -1  21  -1  22  -1
M  END
>  <filename_input>  (18) 
8AP0_PRP_docked.sdf

>  <pdb_id>  (18) 
8AP0_PRP

>  <pose_rank>  (18) 
17

>  <num_atoms_heavy>  (18) 
22

>  <num_torsions>  (18) 
7

>  <pose>  (18) 
[14.502353580143803, 22.002212932343575, 12.400921055352692, -1.4446461269406035, 0.2837230991982358, -0.4755527074684418, 7.139920065099239, -0.0015996160618899358, 2.2759959645291166, 12.639116484263326, -7.6911312906013185, -0.712396419023549, -1.5984506791735726]

>  <energy>  (18) 
-345.7170770097427

>  <inter_energy>  (18) 
-342.75030322968445

>  <intra_energy>  (18) 
12.774527581885584

>  <rmsd>  (18) 
6.79758

>  <sdf_rank>  (18) 
0

$$$$

     RDKit          3D

 30 30  0  0  0  0  0  0  0  0999 V2000
   10.8217   20.7986    8.5065 C   0  0  1  0  0  0  0  0  0  0  0  0
    9.8777   19.6736    8.2091 C   0  0  1  0  0  0  0  0  0  0  0  0
    8.6774   20.4093    7.6609 C   0  0  1  0  0  0  0  0  0  0  0  0
    8.6499   21.7583    8.3852 C   0  0  1  0  0  0  0  0  0  0  0  0
    7.6070   21.8676    9.5231 C   0  0  0  0  0  0  0  0  0  0  0  0
   11.5628   21.0409    7.2755 O   0  0  0  0  0  0  0  0  0  0  0  0
   10.5001   18.9004    7.1815 O   0  0  0  0  0  0  0  0  0  0  0  0
    8.9988   20.5095    6.2452 O   0  0  0  0  0  0  0  0  0  0  0  0
    9.9980   21.9103    8.8731 O   0  0  0  0  0  0  0  0  0  0  0  0
    8.0030   21.1647   10.7207 O   0  0  0  0  0  0  0  0  0  0  0  0
    8.6154   21.9130   12.0056 P   0  0  1  0  0  0  0  0  0  0  0  0
    7.9380   21.4081   13.2622 O   0  0  0  0  0  0  0  0  0  0  0  0
   10.1106   21.5250   11.9126 O   0  0  0  0  0  0  0  0  0  0  0  0
    8.4086   23.3932   11.8105 O   0  0  0  0  0  0  0  0  0  0  0  0
   12.8264   22.0698    7.3689 P   0  0  1  0  0  0  0  0  0  0  0  0
   13.8287   21.8265    8.5018 O   0  0  0  0  0  0  0  0  0  0  0  0
   13.4896   21.9964    6.0275 O   0  0  0  0  0  0  0  0  0  0  0  0
   12.2178   23.5325    7.6977 O   0  0  0  0  0  0  0  0  0  0  0  0
   13.1764   24.9028    7.7821 P   0  0  1  0  0  0  0  0  0  0  0  0
   14.1049   24.6955    6.6057 O   0  0  0  0  0  0  0  0  0  0  0  0
   12.1879   25.9409    7.3190 O   0  0  0  0  0  0  0  0  0  0  0  0
   13.6570   24.8815    9.2597 O   0  0  0  0  0  0  0  0  0  0  0  0
   11.5390   20.6008    9.3166 H   0  0  0  0  0  0  0  0  0  0  0  0
    9.6199   19.0115    9.0488 H   0  0  0  0  0  0  0  0  0  0  0  0
    7.6872   19.9500    7.7969 H   0  0  0  0  0  0  0  0  0  0  0  0
    8.3325   22.5598    7.7020 H   0  0  0  0  0  0  0  0  0  0  0  0
    7.4680   22.9305    9.7703 H   0  0  0  0  0  0  0  0  0  0  0  0
    6.6765   21.4049    9.1624 H   0  0  0  0  0  0  0  0  0  0  0  0
   11.0648   18.1989    7.5926 H   0  0  0  0  0  0  0  0  0  0  0  0
    9.9386   20.8025    6.1402 H   0  0  0  0  0  0  0  0  0  0  0  0
  1  2  1  0
  1  6  1  0
  1  9  1  0
  2  3  1  0
  2  7  1  0
  3  4  1  0
  3  8  1  0
  4  5  1  0
  4  9  1  0
  5 10  1  0
  6 15  1  0
 10 11  1  0
 11 12  2  0
 11 13  1  1
 11 14  1  0
 15 16  2  0
 15 17  1  6
 15 18  1  0
 18 19  1  0
 19 20  2  0
 19 21  1  6
 19 22  1  0
  1 23  1  1
  2 24  1  1
  3 25  1  6
  4 26  1  6
  5 27  1  0
  5 28  1  0
  7 29  1  0
  8 30  1  0
M  CHG  5  13  -1  14  -1  17  -1  21  -1  22  -1
M  END
>  <filename_input>  (19) 
8AP0_PRP_docked.sdf

>  <pdb_id>  (19) 
8AP0_PRP

>  <pose_rank>  (19) 
18

>  <num_atoms_heavy>  (19) 
22

>  <num_torsions>  (19) 
7

>  <pose>  (19) 
[10.821736239617744, 20.79856482442713, 8.506475675492053, -1.6479204035152049, 1.1447478295436286, -0.9582539718490541, 4.994379094135282, 0.1112799090360138, 1.588306383073803, 12.881131801236846, -5.774875374708546, -1.926688176210315, -1.9188695346456415]

>  <energy>  (19) 
-410.3985720595016

>  <inter_energy>  (19) 
-444.5211226802702

>  <intra_energy>  (19) 
24.845495986264467

>  <rmsd>  (19) 
5.61511

>  <sdf_rank>  (19) 
0

$$$$

     RDKit          3D

 30 30  0  0  0  0  0  0  0  0999 V2000
    9.7142   23.9635    2.9391 C   0  0  1  0  0  0  0  0  0  0  0  0
    9.5734   23.3573    1.5760 C   0  0  1  0  0  0  0  0  0  0  0  0
    8.1584   22.8290    1.6135 C   0  0  1  0  0  0  0  0  0  0  0  0
    7.9016   22.4305    3.0696 C   0  0  1  0  0  0  0  0  0  0  0  0
    7.9756   20.9112    3.3539 C   0  0  0  0  0  0  0  0  0  0  0  0
    9.2261   25.3318    2.8257 O   0  0  0  0  0  0  0  0  0  0  0  0
    9.6759   24.4418    0.6518 O   0  0  0  0  0  0  0  0  0  0  0  0
    7.3880   23.9834    1.1761 O   0  0  0  0  0  0  0  0  0  0  0  0
    8.9001   23.1658    3.8050 O   0  0  0  0  0  0  0  0  0  0  0  0
    7.9899   20.6013    4.7642 O   0  0  0  0  0  0  0  0  0  0  0  0
    8.1398   19.1009    5.3230 P   0  0  1  0  0  0  0  0  0  0  0  0
    7.7690   19.0627    6.7906 O   0  0  0  0  0  0  0  0  0  0  0  0
    7.1521   18.3276    4.4170 O   0  0  0  0  0  0  0  0  0  0  0  0
    9.5656   18.6703    5.0912 O   0  0  0  0  0  0  0  0  0  0  0  0
    9.4407   26.2984    4.1232 P   0  0  1  0  0  0  0  0  0  0  0  0
    8.5154   26.0577    5.3203 O   0  0  0  0  0  0  0  0  0  0  0  0
   10.8801   26.1289    4.5024 O   0  0  0  0  0  0  0  0  0  0  0  0
    9.0807   27.8039    3.6520 O   0  0  0  0  0  0  0  0  0  0  0  0
   10.1917   29.0546    3.7247 P   0  0  1  0  0  0  0  0  0  0  0  0
   11.0970   28.7234    2.5586 O   0  0  0  0  0  0  0  0  0  0  0  0
    9.3335   30.1936    3.2395 O   0  0  0  0  0  0  0  0  0  0  0  0
   10.6575   28.9994    5.2062 O   0  0  0  0  0  0  0  0  0  0  0  0
   10.7410   23.9870    3.3328 H   0  0  0  0  0  0  0  0  0  0  0  0
   10.3059   22.5835    1.3027 H   0  0  0  0  0  0  0  0  0  0  0  0
    7.9206   21.9527    0.9925 H   0  0  0  0  0  0  0  0  0  0  0  0
    6.8688   22.6711    3.3619 H   0  0  0  0  0  0  0  0  0  0  0  0
    7.1003   20.4261    2.8972 H   0  0  0  0  0  0  0  0  0  0  0  0
    8.9194   20.5420    2.9262 H   0  0  0  0  0  0  0  0  0  0  0  0
    9.7564   25.2935    1.1501 H   0  0  0  0  0  0  0  0  0  0  0  0
    7.0575   24.4785    1.9671 H   0  0  0  0  0  0  0  0  0  0  0  0
  1  2  1  0
  1  6  1  0
  1  9  1  0
  2  3  1  0
  2  7  1  0
  3  4  1  0
  3  8  1  0
  4  5  1  0
  4  9  1  0
  5 10  1  0
  6 15  1  0
 10 11  1  0
 11 12  2  0
 11 13  1  6
 11 14  1  0
 15 16  2  0
 15 17  1  1
 15 18  1  0
 18 19  1  0
 19 20  2  0
 19 21  1  6
 19 22  1  0
  1 23  1  1
  2 24  1  6
  3 25  1  6
  4 26  1  1
  5 27  1  0
  5 28  1  0
  7 29  1  0
  8 30  1  0
M  CHG  5  13  -1  14  -1  17  -1  21  -1  22  -1
M  END
>  <filename_input>  (20) 
8AP0_PRP_docked.sdf

>  <pdb_id>  (20) 
8AP0_PRP

>  <pose_rank>  (20) 
19

>  <num_atoms_heavy>  (20) 
22

>  <num_torsions>  (20) 
7

>  <pose>  (20) 
[9.71418807167752, 23.96351059509644, 2.9390924466791684, 3.9546426293061985, -2.261806662059893, -1.8886742766609341, 0.33246755751157686, 1.5406502789375933, 2.6503262742070928, 0.2928168088381385, -1.6591267338424516, -0.9546455434893157, -1.3412454368709457]

>  <energy>  (20) 
-229.15925474219827

>  <inter_energy>  (20) 
-235.41049616874716

>  <intra_energy>  (20) 
6.770449633733175

>  <rmsd>  (20) 
7.94484

>  <sdf_rank>  (20) 
0

$$$$

     RDKit          3D

 30 30  0  0  0  0  0  0  0  0999 V2000
   15.4713   22.4490   13.0996 C   0  0  1  0  0  0  0  0  0  0  0  0
   15.3106   23.1759   11.7991 C   0  0  1  0  0  0  0  0  0  0  0  0
   13.8076   23.2326   11.6563 C   0  0  1  0  0  0  0  0  0  0  0  0
   13.2781   21.9596   12.3228 C   0  0  1  0  0  0  0  0  0  0  0  0
   12.8573   20.8366   11.3449 C   0  0  0  0  0  0  0  0  0  0  0  0
   15.4350   23.4685   14.1400 O   0  0  0  0  0  0  0  0  0  0  0  0
   15.8404   24.4852   12.0135 O   0  0  0  0  0  0  0  0  0  0  0  0
   13.4766   24.4533   12.3758 O   0  0  0  0  0  0  0  0  0  0  0  0
   14.3612   21.5490   13.1813 O   0  0  0  0  0  0  0  0  0  0  0  0
   11.4894   20.4122   11.5284 O   0  0  0  0  0  0  0  0  0  0  0  0
   10.5736   19.8828   10.3171 P   0  0  1  0  0  0  0  0  0  0  0  0
   11.4185   19.0790    9.3512 O   0  0  0  0  0  0  0  0  0  0  0  0
    9.5192   19.0345   11.0674 O   0  0  0  0  0  0  0  0  0  0  0  0
    9.9545   21.0874    9.6557 O   0  0  0  0  0  0  0  0  0  0  0  0
   16.6869   23.4948   15.1869 P   0  0  1  0  0  0  0  0  0  0  0  0
   17.5715   22.2448   15.2323 O   0  0  0  0  0  0  0  0  0  0  0  0
   17.4791   24.7117   14.8177 O   0  0  0  0  0  0  0  0  0  0  0  0
   16.0542   23.5757   16.6739 O   0  0  0  0  0  0  0  0  0  0  0  0
   16.9410   24.0906   17.9976 P   0  0  1  0  0  0  0  0  0  0  0  0
   18.3484   23.7249   17.5798 O   0  0  0  0  0  0  0  0  0  0  0  0
   16.8535   25.5821   17.8052 O   0  0  0  0  0  0  0  0  0  0  0  0
   16.1998   23.4074   19.1802 O   0  0  0  0  0  0  0  0  0  0  0  0
   16.4054   21.8767   13.1992 H   0  0  0  0  0  0  0  0  0  0  0  0
   15.8017   22.7302   10.9216 H   0  0  0  0  0  0  0  0  0  0  0  0
   13.3890   23.2622   10.6395 H   0  0  0  0  0  0  0  0  0  0  0  0
   12.3398   22.1634   12.8594 H   0  0  0  0  0  0  0  0  0  0  0  0
   12.9747   21.2061   10.3155 H   0  0  0  0  0  0  0  0  0  0  0  0
   13.5012   19.9675   11.5451 H   0  0  0  0  0  0  0  0  0  0  0  0
   15.9102   24.6578   12.9859 H   0  0  0  0  0  0  0  0  0  0  0  0
   13.5223   24.2847   13.3503 H   0  0  0  0  0  0  0  0  0  0  0  0
  1  2  1  0
  1  6  1  0
  1  9  1  0
  2  3  1  0
  2  7  1  0
  3  4  1  0
  3  8  1  0
  4  5  1  0
  4  9  1  0
  5 10  1  0
  6 15  1  0
 10 11  1  0
 11 12  2  0
 11 13  1  1
 11 14  1  0
 15 16  2  0
 15 17  1  6
 15 18  1  0
 18 19  1  0
 19 20  2  0
 19 21  1  1
 19 22  1  0
  1 23  1  6
  2 24  1  6
  3 25  1  6
  4 26  1  1
  5 27  1  0
  5 28  1  0
  7 29  1  0
  8 30  1  0
M  CHG  5  13  -1  14  -1  17  -1  21  -1  22  -1
M  END
>  <filename_input>  (21) 
8AP0_PRP_docked.sdf

>  <pdb_id>  (21) 
8AP0_PRP

>  <pose_rank>  (21) 
20

>  <num_atoms_heavy>  (21) 
22

>  <num_torsions>  (21) 
7

>  <pose>  (21) 
[15.4712813036605, 22.44898987005767, 13.099584504361944, 1.0623095613431501, -4.1371380172092325, -3.6291615657187735, 1.5156559939046388, 0.9297652065762161, -0.1040066606349894, -11.467898312582394, -13.202071771516929, 10.90858420514552, -3.118093160957068]

>  <energy>  (21) 
-239.71611151353105

>  <inter_energy>  (21) 
-248.5099883428987

>  <intra_energy>  (21) 
17.791575257747155

>  <rmsd>  (21) 
7.86024

>  <sdf_rank>  (21) 
0

$$$$

     RDKit          3D

 30 30  0  0  0  0  0  0  0  0999 V2000
   16.7813   13.2002    5.3704 C   0  0  1  0  0  0  0  0  0  0  0  0
   18.1099   13.6223    4.8210 C   0  0  1  0  0  0  0  0  0  0  0  0
   17.9599   15.1244    4.7598 C   0  0  1  0  0  0  0  0  0  0  0  0
   16.4769   15.3833    4.4793 C   0  0  1  0  0  0  0  0  0  0  0  0
   16.1451   15.7623    3.0162 C   0  0  0  0  0  0  0  0  0  0  0  0
   16.9099   13.2479    6.8211 O   0  0  0  0  0  0  0  0  0  0  0  0
   19.0763   13.2579    5.8080 O   0  0  0  0  0  0  0  0  0  0  0  0
   18.3853   15.5300    6.0909 O   0  0  0  0  0  0  0  0  0  0  0  0
   15.8358   14.1547    4.8767 O   0  0  0  0  0  0  0  0  0  0  0  0
   17.0217   15.1316    2.0575 O   0  0  0  0  0  0  0  0  0  0  0  0
   16.4767   14.2252    0.8462 P   0  0  1  0  0  0  0  0  0  0  0  0
   15.5769   13.1347    1.3885 O   0  0  0  0  0  0  0  0  0  0  0  0
   15.7288   15.2696   -0.0165 O   0  0  0  0  0  0  0  0  0  0  0  0
   17.6749   13.6605    0.1268 O   0  0  0  0  0  0  0  0  0  0  0  0
   16.3779   11.9459    7.6492 P   0  0  1  0  0  0  0  0  0  0  0  0
   14.9502   11.4774    7.3503 O   0  0  0  0  0  0  0  0  0  0  0  0
   17.3778   10.8671    7.3647 O   0  0  0  0  0  0  0  0  0  0  0  0
   16.3275   12.3701    9.2098 O   0  0  0  0  0  0  0  0  0  0  0  0
   17.1955   11.5557   10.3875 P   0  0  1  0  0  0  0  0  0  0  0  0
   18.6198   11.8738    9.9881 O   0  0  0  0  0  0  0  0  0  0  0  0
   16.9177   12.4407   11.5744 O   0  0  0  0  0  0  0  0  0  0  0  0
   16.5910   10.1259   10.3166 O   0  0  0  0  0  0  0  0  0  0  0  0
   16.4577   12.1903    5.0782 H   0  0  0  0  0  0  0  0  0  0  0  0
   18.4040   13.1875    3.8543 H   0  0  0  0  0  0  0  0  0  0  0  0
   18.5326   15.6670    3.9932 H   0  0  0  0  0  0  0  0  0  0  0  0
   16.1251   16.2663    5.0330 H   0  0  0  0  0  0  0  0  0  0  0  0
   15.1110   15.4554    2.8005 H   0  0  0  0  0  0  0  0  0  0  0  0
   16.2794   16.8497    2.9194 H   0  0  0  0  0  0  0  0  0  0  0  0
   18.6961   13.4013    6.7108 H   0  0  0  0  0  0  0  0  0  0  0  0
   17.8637   15.0327    6.7698 H   0  0  0  0  0  0  0  0  0  0  0  0
  1  2  1  0
  1  6  1  0
  1  9  1  0
  2  3  1  0
  2  7  1  0
  3  4  1  0
  3  8  1  0
  4  5  1  0
  4  9  1  0
  5 10  1  0
  6 15  1  0
 10 11  1  0
 11 12  2  0
 11 13  1  6
 11 14  1  0
 15 16  2  0
 15 17  1  1
 15 18  1  0
 18 19  1  0
 19 20  2  0
 19 21  1  1
 19 22  1  0
  1 23  1  1
  2 24  1  6
  3 25  1  6
  4 26  1  1
  5 27  1  0
  5 28  1  0
  7 29  1  0
  8 30  1  0
M  CHG  5  13  -1  14  -1  17  -1  21  -1  22  -1
M  END
>  <filename_input>  (22) 
8AP0_PRP_docked.sdf

>  <pdb_id>  (22) 
8AP0_PRP

>  <pose_rank>  (22) 
21

>  <num_atoms_heavy>  (22) 
22

>  <num_torsions>  (22) 
7

>  <pose>  (22) 
[16.781273979844418, 13.200192029417884, 5.370438325262545, 0.6302784050586026, -0.07928827734135624, -0.7513438133211353, -2.0453376934232206, 0.5104879168077016, -1.6832051294918795, 0.9952616812543086, -1.264111561549955, -0.9715919227925278, -1.4907026460750588]

>  <energy>  (22) 
-151.88248626471824

>  <inter_energy>  (22) 
-161.82228977731586

>  <intra_energy>  (22) 
9.895766022816908

>  <rmsd>  (22) 
11.3793

>  <sdf_rank>  (22) 
0

$$$$

     RDKit          3D

 30 30  0  0  0  0  0  0  0  0999 V2000
   17.0011   17.6016    2.2916 C   0  0  1  0  0  0  0  0  0  0  0  0
   16.5924   18.1577    0.9616 C   0  0  1  0  0  0  0  0  0  0  0  0
   17.8933   18.7299    0.4488 C   0  0  1  0  0  0  0  0  0  0  0  0
   18.6618   19.1931    1.6898 C   0  0  1  0  0  0  0  0  0  0  0  0
   18.6349   20.7194    1.9429 C   0  0  0  0  0  0  0  0  0  0  0  0
   17.4691   16.2455    2.0365 O   0  0  0  0  0  0  0  0  0  0  0  0
   16.1964   17.0350    0.1719 O   0  0  0  0  0  0  0  0  0  0  0  0
   18.4914   17.5832   -0.2180 O   0  0  0  0  0  0  0  0  0  0  0  0
   18.0461   18.4572    2.7658 O   0  0  0  0  0  0  0  0  0  0  0  0
   19.0475   21.4892    0.7930 O   0  0  0  0  0  0  0  0  0  0  0  0
   18.5031   22.9738    0.5001 P   0  0  1  0  0  0  0  0  0  0  0  0
   18.7045   23.8428    1.7236 O   0  0  0  0  0  0  0  0  0  0  0  0
   19.3750   23.3961   -0.7066 O   0  0  0  0  0  0  0  0  0  0  0  0
   17.0477   22.8581    0.1251 O   0  0  0  0  0  0  0  0  0  0  0  0
   17.0937   15.1163    3.1537 P   0  0  1  0  0  0  0  0  0  0  0  0
   17.1773   15.5471    4.6216 O   0  0  0  0  0  0  0  0  0  0  0  0
   15.7128   14.6578    2.7966 O   0  0  0  0  0  0  0  0  0  0  0  0
   18.2038   13.9457    3.0298 O   0  0  0  0  0  0  0  0  0  0  0  0
   17.7928   12.3231    2.9840 P   0  0  1  0  0  0  0  0  0  0  0  0
   19.1385   11.6640    3.1930 O   0  0  0  0  0  0  0  0  0  0  0  0
   17.0875   12.1958    4.3090 O   0  0  0  0  0  0  0  0  0  0  0  0
   16.9921   12.2207    1.6562 O   0  0  0  0  0  0  0  0  0  0  0  0
   16.2000   17.5624    3.0444 H   0  0  0  0  0  0  0  0  0  0  0  0
   15.7783   18.8975    0.9659 H   0  0  0  0  0  0  0  0  0  0  0  0
   17.8420   19.5879   -0.2376 H   0  0  0  0  0  0  0  0  0  0  0  0
   19.7380   18.9957    1.5765 H   0  0  0  0  0  0  0  0  0  0  0  0
   17.6091   21.0122    2.2112 H   0  0  0  0  0  0  0  0  0  0  0  0
   19.3476   20.9311    2.7537 H   0  0  0  0  0  0  0  0  0  0  0  0
   15.9333   16.2891    0.7673 H   0  0  0  0  0  0  0  0  0  0  0  0
   18.8249   16.9438    0.4603 H   0  0  0  0  0  0  0  0  0  0  0  0
  1  2  1  0
  1  6  1  0
  1  9  1  0
  2  3  1  0
  2  7  1  0
  3  4  1  0
  3  8  1  0
  4  5  1  0
  4  9  1  0
  5 10  1  0
  6 15  1  0
 10 11  1  0
 11 12  2  0
 11 13  1  6
 11 14  1  0
 15 16  2  0
 15 17  1  6
 15 18  1  0
 18 19  1  0
 19 20  2  0
 19 21  1  1
 19 22  1  0
  1 23  1  1
  2 24  1  1
  3 25  1  6
  4 26  1  6
  5 27  1  0
  5 28  1  0
  7 29  1  0
  8 30  1  0
M  CHG  5  13  -1  14  -1  17  -1  21  -1  22  -1
M  END
>  <filename_input>  (23) 
8AP0_PRP_docked.sdf

>  <pdb_id>  (23) 
8AP0_PRP

>  <pose_rank>  (23) 
22

>  <num_atoms_heavy>  (23) 
22

>  <num_torsions>  (23) 
7

>  <pose>  (23) 
[17.001105395349246, 17.601637475555442, 2.291629455084539, 0.338106555439976, 1.5177373411463702, -2.3577719935407013, 2.7536248766318288, 0.9726194019572679, 0.1742850391537938, 0.8207948462737124, -1.0450734683784442, -1.1773364687494017, 0.7181670582146439]

>  <energy>  (23) 
-133.21881741114825

>  <inter_energy>  (23) 
-134.41480989010321

>  <intra_energy>  (23) 
7.152474220453536

>  <rmsd>  (23) 
12.9773

>  <sdf_rank>  (23) 
0

$$$$

     RDKit          3D

 30 30  0  0  0  0  0  0  0  0999 V2000
   18.6725   18.1456    7.0570 C   0  0  1  0  0  0  0  0  0  0  0  0
   19.4135   18.5976    5.8356 C   0  0  1  0  0  0  0  0  0  0  0  0
   18.5673   18.0202    4.7251 C   0  0  1  0  0  0  0  0  0  0  0  0
   17.9764   16.7227    5.2840 C   0  0  1  0  0  0  0  0  0  0  0  0
   18.6658   15.4268    4.7945 C   0  0  0  0  0  0  0  0  0  0  0  0
   17.6689   19.1682    7.3228 O   0  0  0  0  0  0  0  0  0  0  0  0
   19.3328   20.0239    5.8332 O   0  0  0  0  0  0  0  0  0  0  0  0
   17.5824   19.0699    4.5120 O   0  0  0  0  0  0  0  0  0  0  0  0
   18.0870   16.8858    6.7122 O   0  0  0  0  0  0  0  0  0  0  0  0
   17.7565   14.5177    4.1374 O   0  0  0  0  0  0  0  0  0  0  0  0
   17.7390   14.3067    2.5433 P   0  0  1  0  0  0  0  0  0  0  0  0
   16.3650   13.8468    2.1036 O   0  0  0  0  0  0  0  0  0  0  0  0
   18.1080   15.7208    2.0347 O   0  0  0  0  0  0  0  0  0  0  0  0
   18.8054   13.2957    2.2073 O   0  0  0  0  0  0  0  0  0  0  0  0
   17.0684   19.2318    8.8392 P   0  0  1  0  0  0  0  0  0  0  0  0
   17.1121   17.9332    9.6509 O   0  0  0  0  0  0  0  0  0  0  0  0
   17.8351   20.3259    9.5171 O   0  0  0  0  0  0  0  0  0  0  0  0
   15.4880   19.5519    8.7055 O   0  0  0  0  0  0  0  0  0  0  0  0
   14.6821   20.5487    9.7828 P   0  0  1  0  0  0  0  0  0  0  0  0
   14.4028   21.7614    8.9223 O   0  0  0  0  0  0  0  0  0  0  0  0
   13.3647   19.8238    9.8725 O   0  0  0  0  0  0  0  0  0  0  0  0
   15.6484   20.5729   10.9995 O   0  0  0  0  0  0  0  0  0  0  0  0
   19.2933   18.0188    7.9562 H   0  0  0  0  0  0  0  0  0  0  0  0
   20.4694   18.2986    5.7610 H   0  0  0  0  0  0  0  0  0  0  0  0
   19.0663   17.7657    3.7784 H   0  0  0  0  0  0  0  0  0  0  0  0
   16.9436   16.5830    4.9323 H   0  0  0  0  0  0  0  0  0  0  0  0
   19.4620   15.6993    4.0861 H   0  0  0  0  0  0  0  0  0  0  0  0
   19.0638   14.9108    5.6808 H   0  0  0  0  0  0  0  0  0  0  0  0
   19.3141   20.3550    6.7660 H   0  0  0  0  0  0  0  0  0  0  0  0
   17.2655   19.4077    5.3870 H   0  0  0  0  0  0  0  0  0  0  0  0
  1  2  1  0
  1  6  1  0
  1  9  1  0
  2  3  1  0
  2  7  1  0
  3  4  1  0
  3  8  1  0
  4  5  1  0
  4  9  1  0
  5 10  1  0
  6 15  1  0
 10 11  1  0
 11 12  2  0
 11 13  1  6
 11 14  1  0
 15 16  2  0
 15 17  1  1
 15 18  1  0
 18 19  1  0
 19 20  2  0
 19 21  1  1
 19 22  1  0
  1 23  1  1
  2 24  1  1
  3 25  1  6
  4 26  1  1
  5 27  1  0
  5 28  1  0
  7 29  1  0
  8 30  1  0
M  CHG  5  13  -1  14  -1  17  -1  21  -1  22  -1
M  END
>  <filename_input>  (24) 
8AP0_PRP_docked.sdf

>  <pdb_id>  (24) 
8AP0_PRP

>  <pose_rank>  (24) 
23

>  <num_atoms_heavy>  (24) 
22

>  <num_torsions>  (24) 
7

>  <pose>  (24) 
[18.672461273809507, 18.145614839288477, 7.057044426500824, -0.6456588782894891, -0.28451238083044605, 0.6061134658123825, -4.743424597443568, 0.18415653861344403, -3.431701004802187, 0.5198013049945418, -0.7984499602684533, -1.3434252103520017, -0.7295321841147427]

>  <energy>  (24) 
-130.86513540332504

>  <inter_energy>  (24) 
-147.65291721664127

>  <intra_energy>  (24) 
18.70464426275774

>  <rmsd>  (24) 
9.10477

>  <sdf_rank>  (24) 
0

$$$$

     RDKit          3D

 30 30  0  0  0  0  0  0  0  0999 V2000
    3.6033   15.4735   16.6319 C   0  0  1  0  0  0  0  0  0  0  0  0
    2.8145   16.5012   17.3849 C   0  0  1  0  0  0  0  0  0  0  0  0
    1.4392   15.8767   17.4186 C   0  0  1  0  0  0  0  0  0  0  0  0
    1.3162   15.0714   16.1220 C   0  0  1  0  0  0  0  0  0  0  0  0
    0.4693   15.7421   15.0141 C   0  0  0  0  0  0  0  0  0  0  0  0
    4.0851   14.5244   17.6270 O   0  0  0  0  0  0  0  0  0  0  0  0
    3.3756   16.5416   18.6981 O   0  0  0  0  0  0  0  0  0  0  0  0
    1.5049   15.0539   18.6169 O   0  0  0  0  0  0  0  0  0  0  0  0
    2.6843   14.8765   15.7112 O   0  0  0  0  0  0  0  0  0  0  0  0
    1.2530   16.1410   13.8687 O   0  0  0  0  0  0  0  0  0  0  0  0
    0.6009   16.8093   12.5595 P   0  0  1  0  0  0  0  0  0  0  0  0
    1.4717   17.9521   12.0813 O   0  0  0  0  0  0  0  0  0  0  0  0
    0.5630   15.6116   11.5805 O   0  0  0  0  0  0  0  0  0  0  0  0
   -0.7847   17.2738   12.9288 O   0  0  0  0  0  0  0  0  0  0  0  0
    4.3936   13.0082   17.1074 P   0  0  1  0  0  0  0  0  0  0  0  0
    3.1815   12.0983   16.8835 O   0  0  0  0  0  0  0  0  0  0  0  0
    5.1872   13.1808   15.8485 O   0  0  0  0  0  0  0  0  0  0  0  0
    5.2215   12.2677   18.2840 O   0  0  0  0  0  0  0  0  0  0  0  0
    6.4988   11.2330   17.9654 P   0  0  1  0  0  0  0  0  0  0  0  0
    7.6524   12.2045   17.8444 O   0  0  0  0  0  0  0  0  0  0  0  0
    6.6648   10.5991   19.3217 O   0  0  0  0  0  0  0  0  0  0  0  0
    5.9601   10.3986   16.7702 O   0  0  0  0  0  0  0  0  0  0  0  0
    4.4656   15.8674   16.0739 H   0  0  0  0  0  0  0  0  0  0  0  0
    2.8061   17.5190   16.9677 H   0  0  0  0  0  0  0  0  0  0  0  0
    0.5704   16.5499   17.4638 H   0  0  0  0  0  0  0  0  0  0  0  0
    0.7680   14.1340   16.2973 H   0  0  0  0  0  0  0  0  0  0  0  0
   -0.3002   15.0300   14.6815 H   0  0  0  0  0  0  0  0  0  0  0  0
    0.0273   16.6531   15.4439 H   0  0  0  0  0  0  0  0  0  0  0  0
    2.6495   16.4893   19.3690 H   0  0  0  0  0  0  0  0  0  0  0  0
    1.4586   15.6335   19.4182 H   0  0  0  0  0  0  0  0  0  0  0  0
  1  2  1  0
  1  6  1  0
  1  9  1  0
  2  3  1  0
  2  7  1  0
  3  4  1  0
  3  8  1  0
  4  5  1  0
  4  9  1  0
  5 10  1  0
  6 15  1  0
 10 11  1  0
 11 12  2  0
 11 13  1  6
 11 14  1  0
 15 16  2  0
 15 17  1  6
 15 18  1  0
 18 19  1  0
 19 20  2  0
 19 21  1  1
 19 22  1  0
  1 23  1  6
  2 24  1  6
  3 25  1  1
  4 26  1  1
  5 27  1  0
  5 28  1  0
  7 29  1  0
  8 30  1  0
M  CHG  5  13  -1  14  -1  17  -1  21  -1  22  -1
M  END
>  <filename_input>  (25) 
8AP0_PRP_docked.sdf

>  <pdb_id>  (25) 
8AP0_PRP

>  <pose_rank>  (25) 
24

>  <num_atoms_heavy>  (25) 
22

>  <num_torsions>  (25) 
7

>  <pose>  (25) 
[3.603297016712009, 15.473534889006666, 16.631901717231656, -3.3175802025050105, -0.9482286866597186, -2.758448332418079, -0.6481615991078168, 1.4424682606977537, 1.6664418768124698, -0.29352090348411203, -1.6997650980570254, -1.3051634151290847, -1.1563087538531958]

>  <energy>  (25) 
-107.44031702199923

>  <inter_energy>  (25) 
-126.72799983503161

>  <intra_energy>  (25) 
13.440239662859753

>  <rmsd>  (25) 
11.7926

>  <sdf_rank>  (25) 
0

$$$$

     RDKit          3D

 30 30  0  0  0  0  0  0  0  0999 V2000
   11.0260   19.4560    9.3490 C   0  0  1  0  0  0  0  0  0  0  0  0
   11.8100   20.1970    8.3090 C   0  0  1  0  0  0  0  0  0  0  0  0
   10.7190   20.9070    7.5420 C   0  0  1  0  0  0  0  0  0  0  0  0
    9.4980   19.9850    7.6060 C   0  0  1  0  0  0  0  0  0  0  0  0
    9.2250   19.1720    6.3180 C   0  0  0  0  0  0  0  0  0  0  0  0
   10.8700   20.3750   10.4690 O   0  0  0  0  0  0  0  0  0  0  0  0
   12.6130   21.1400    9.0210 O   0  0  0  0  0  0  0  0  0  0  0  0
   10.5640   22.1400    8.2990 O   0  0  0  0  0  0  0  0  0  0  0  0
    9.7750   19.1310    8.7340 O   0  0  0  0  0  0  0  0  0  0  0  0
    8.6010   17.8960    6.5780 O   0  0  0  0  0  0  0  0  0  0  0  0
    7.0090   17.6780    6.5150 P   0  0  1  0  0  0  0  0  0  0  0  0
    6.4420   18.3970    5.3090 O   0  0  0  0  0  0  0  0  0  0  0  0
    6.9060   16.1370    6.4190 O   0  0  0  0  0  0  0  0  0  0  0  0
    6.4280   18.1980    7.8050 O   0  0  0  0  0  0  0  0  0  0  0  0
    9.8560   19.9140   11.6620 P   0  0  1  0  0  0  0  0  0  0  0  0
    9.5390   18.4180   11.7550 O   0  0  0  0  0  0  0  0  0  0  0  0
   10.4840   20.4190   12.9250 O   0  0  0  0  0  0  0  0  0  0  0  0
    8.4220   20.5950   11.3490 O   0  0  0  0  0  0  0  0  0  0  0  0
    8.1910   22.2530   11.3860 P   0  0  1  0  0  0  0  0  0  0  0  0
    7.0650   22.4240   10.3900 O   0  0  0  0  0  0  0  0  0  0  0  0
    7.5400   22.3950   12.7370 O   0  0  0  0  0  0  0  0  0  0  0  0
    9.6280   22.7940   11.1470 O   0  0  0  0  0  0  0  0  0  0  0  0
   11.4972   18.5316    9.7144 H   0  0  0  0  0  0  0  0  0  0  0  0
   12.4594   19.5930    7.6582 H   0  0  0  0  0  0  0  0  0  0  0  0
   10.8994   21.1300    6.4801 H   0  0  0  0  0  0  0  0  0  0  0  0
    8.5733   20.5715    7.7103 H   0  0  0  0  0  0  0  0  0  0  0  0
    8.5622   19.7600    5.6662 H   0  0  0  0  0  0  0  0  0  0  0  0
   10.1967   18.9724    5.8427 H   0  0  0  0  0  0  0  0  0  0  0  0
   12.4969   21.0037    9.9947 H   0  0  0  0  0  0  0  0  0  0  0  0
   10.5894   21.9378    9.2678 H   0  0  0  0  0  0  0  0  0  0  0  0
  1  2  1  0
  1  6  1  0
  1  9  1  0
  2  3  1  0
  2  7  1  0
  3  4  1  0
  3  8  1  0
  4  5  1  0
  4  9  1  0
  5 10  1  0
  6 15  1  0
 10 11  1  0
 11 12  2  0
 11 13  1  6
 11 14  1  0
 15 16  2  0
 15 17  1  1
 15 18  1  0
 18 19  1  0
 19 20  2  0
 19 21  1  1
 19 22  1  0
  1 23  1  1
  2 24  1  6
  3 25  1  6
  4 26  1  1
  5 27  1  0
  5 28  1  0
  7 29  1  0
  8 30  1  0
M  CHG  5  13  -1  14  -1  17  -1  21  -1  22  -1
M  END
>  <filename_input>  (26) 
8AP0_PRP_docked.sdf

>  <pdb_id>  (26) 
8AP0_PRP

>  <pose_rank>  (26) 
25

>  <num_atoms_heavy>  (26) 
22

>  <num_torsions>  (26) 
7

>  <pose>  (26) 
[11.026, 19.456, 9.349, 1e-06, 1e-06, 1e-06, 0.0, 0.0, 0.0, 0.0, 0.0, 0.0, 0.0]

>  <energy>  (26) 
-663.9177993553081

>  <inter_energy>  (26) 
-682.620566892111

>  <intra_energy>  (26) 
19.834743035202678

>  <rmsd>  (26) 
0.0

>  <sdf_rank>  (26) 
0

$$$$
