
     RDKit          3D

 33 33  0  0  0  0  0  0  0  0999 V2000
    5.1917   54.7649    9.5639 N   0  0  0  0  0  0  0  0  0  0  0  0
    4.7496   55.2564    8.4042 C   0  0  0  0  0  0  0  0  0  0  0  0
    5.4795   56.4495    7.8499 C   0  0  0  0  0  0  0  0  0  0  0  0
    3.6394   54.6319    7.7796 C   0  0  0  0  0  0  0  0  0  0  0  0
    3.2045   55.1565    6.5781 O   0  0  0  0  0  0  0  0  0  0  0  0
    3.0272   53.5349    8.3403 C   0  0  0  0  0  0  0  0  0  0  0  0
    1.8385   52.7989    7.7441 C   0  0  0  0  0  0  0  0  0  0  0  0
    3.5035   53.0555    9.5314 C   0  0  0  0  0  0  0  0  0  0  0  0
    4.5872   53.7047   10.1182 C   0  0  0  0  0  0  0  0  0  0  0  0
    2.8587   51.8996   10.2950 C   0  0  0  0  0  0  0  0  0  0  0  0
    3.2798   50.5911   10.0794 O   0  0  0  0  0  0  0  0  0  0  0  0
    2.3716   49.4231   10.6785 P   0  0  2  0  0  0  0  0  0  0  0  0
    3.0627   48.0953   10.3103 O   0  0  0  0  0  0  0  0  0  0  0  0
    1.0222   49.5221   10.0056 O   0  0  0  0  0  0  0  0  0  0  0  0
    2.3364   49.6436   12.1377 O   0  0  0  0  0  0  0  0  0  0  0  0
   -0.4517   53.8951    5.0101 C   0  0  0  0  0  0  0  0  0  0  0  0
   -0.9785   53.5800    3.9051 O   0  0  0  0  0  0  0  0  0  0  0  0
   -0.7366   55.0108    5.4950 O   0  0  0  0  0  0  0  0  0  0  0  0
    0.4916   52.9388    5.7208 C   0  0  0  0  0  0  0  0  0  0  0  0
    0.9642   53.5683    6.9260 N   0  0  0  0  0  0  0  0  0  0  0  0
    5.8568   57.0663    8.6789 H   0  0  0  0  0  0  0  0  0  0  0  0
    6.3239   56.1086    7.2327 H   0  0  0  0  0  0  0  0  0  0  0  0
    4.7916   57.0460    7.2327 H   0  0  0  0  0  0  0  0  0  0  0  0
    2.4327   54.7492    6.1106 H   0  0  0  0  0  0  0  0  0  0  0  0
    2.2291   51.9726    7.1320 H   0  0  0  0  0  0  0  0  0  0  0  0
    1.2304   52.4806    8.6036 H   0  0  0  0  0  0  0  0  0  0  0  0
    4.9643   53.3300   11.0812 H   0  0  0  0  0  0  0  0  0  0  0  0
    3.0072   52.1066   11.3651 H   0  0  0  0  0  0  0  0  0  0  0  0
    1.8271   51.8946    9.9133 H   0  0  0  0  0  0  0  0  0  0  0  0
   -0.0425   52.0108    5.9727 H   0  0  0  0  0  0  0  0  0  0  0  0
    1.3418   52.6953    5.0667 H   0  0  0  0  0  0  0  0  0  0  0  0
    0.1409   53.8150    7.4937 H   0  0  0  0  0  0  0  0  0  0  0  0
    1.5240   54.3736    6.6113 H   0  0  0  0  0  0  0  0  0  0  0  0
  1  2  2  0
  1  9  1  0
  2  3  1  0
  2  4  1  0
  4  5  1  0
  4  6  2  0
  6  7  1  0
  6  8  1  0
  7 20  1  0
  8  9  2  0
  8 10  1  0
 10 11  1  0
 11 12  1  0
 12 13  2  0
 12 14  1  6
 12 15  1  0
 16 17  2  0
 16 18  1  0
 16 19  1  0
 19 20  1  0
  3 21  1  0
  3 22  1  0
  3 23  1  0
  5 24  1  0
  7 25  1  0
  7 26  1  0
  9 27  1  0
 10 28  1  0
 10 29  1  0
 19 30  1  0
 19 31  1  0
 20 32  1  0
 20 33  1  0
M  CHG  4  14  -1  15  -1  18  -1  20   1
M  END
>  <filename_input>  (1) 
8AQL_PLG_docked.sdf

>  <pdb_id>  (1) 
8AQL_PLG

>  <pose_rank>  (1) 
0

>  <num_atoms_heavy>  (1) 
20

>  <num_torsions>  (1) 
7

>  <pose>  (1) 
[5.191738039400186, 54.76486773636048, 9.563940782310263, -2.210411319448014, 3.9474537582115996, 4.234321764178576, 18.82558031117489, 43.591950774628764, -13.009141665745707, -19.17014436514717, -24.95106572159659, 37.59961019409179, 1.9906417427094396]

>  <energy>  (1) 
-1026.4839228828203

>  <inter_energy>  (1) 
-1029.4746260253085

>  <intra_energy>  (1) 
16.254342723489486

>  <rmsd>  (1) 
0.437607

>  <sdf_rank>  (1) 
0

$$$$

     RDKit          3D

 33 33  0  0  0  0  0  0  0  0999 V2000
    3.4348   55.6509    6.9793 N   0  0  0  0  0  0  0  0  0  0  0  0
    4.3138   55.3104    7.9245 C   0  0  0  0  0  0  0  0  0  0  0  0
    5.3820   56.3177    8.2531 C   0  0  0  0  0  0  0  0  0  0  0  0
    4.1855   54.0426    8.5481 C   0  0  0  0  0  0  0  0  0  0  0  0
    5.1044   53.7163    9.5263 O   0  0  0  0  0  0  0  0  0  0  0  0
    3.1745   53.1754    8.2037 C   0  0  0  0  0  0  0  0  0  0  0  0
    2.9552   51.8025    8.8180 C   0  0  0  0  0  0  0  0  0  0  0  0
    2.2896   53.5535    7.2294 C   0  0  0  0  0  0  0  0  0  0  0  0
    2.4579   54.8010    6.6330 C   0  0  0  0  0  0  0  0  0  0  0  0
    1.1784   52.6479    6.7001 C   0  0  0  0  0  0  0  0  0  0  0  0
   -0.1557   52.9422    6.9641 O   0  0  0  0  0  0  0  0  0  0  0  0
   -1.0349   53.4980    5.7532 P   0  0  2  0  0  0  0  0  0  0  0  0
   -1.9561   54.5852    6.3409 O   0  0  0  0  0  0  0  0  0  0  0  0
   -1.8509   52.3387    5.2299 O   0  0  0  0  0  0  0  0  0  0  0  0
   -0.0769   54.0519    4.7763 O   0  0  0  0  0  0  0  0  0  0  0  0
    2.2214   49.4401   10.6281 C   0  0  0  0  0  0  0  0  0  0  0  0
    2.6815   48.5199    9.8937 O   0  0  0  0  0  0  0  0  0  0  0  0
    1.0591   49.3094   11.0675 O   0  0  0  0  0  0  0  0  0  0  0  0
    3.0642   50.6590   10.9646 C   0  0  0  0  0  0  0  0  0  0  0  0
    2.5873   51.7766   10.1926 N   0  0  0  0  0  0  0  0  0  0  0  0
    5.4776   56.4077    9.3452 H   0  0  0  0  0  0  0  0  0  0  0  0
    6.3409   55.9874    7.8272 H   0  0  0  0  0  0  0  0  0  0  0  0
    5.1086   57.2943    7.8272 H   0  0  0  0  0  0  0  0  0  0  0  0
    5.0489   52.8409    9.9854 H   0  0  0  0  0  0  0  0  0  0  0  0
    2.1568   51.3045    8.2483 H   0  0  0  0  0  0  0  0  0  0  0  0
    3.9322   51.2997    8.7671 H   0  0  0  0  0  0  0  0  0  0  0  0
    1.7565   55.1027    5.8412 H   0  0  0  0  0  0  0  0  0  0  0  0
    1.2856   52.6236    5.6057 H   0  0  0  0  0  0  0  0  0  0  0  0
    1.3394   51.7095    7.2510 H   0  0  0  0  0  0  0  0  0  0  0  0
    2.9759   50.8855   12.0374 H   0  0  0  0  0  0  0  0  0  0  0  0
    4.1200   50.4622   10.7269 H   0  0  0  0  0  0  0  0  0  0  0  0
    2.9495   52.6360   10.6297 H   0  0  0  0  0  0  0  0  0  0  0  0
    1.5607   51.6933   10.1983 H   0  0  0  0  0  0  0  0  0  0  0  0
  1  2  2  0
  1  9  1  0
  2  3  1  0
  2  4  1  0
  4  5  1  0
  4  6  2  0
  6  7  1  0
  6  8  1  0
  7 20  1  0
  8  9  2  0
  8 10  1  0
 10 11  1  0
 11 12  1  0
 12 13  2  0
 12 14  1  6
 12 15  1  0
 16 17  2  0
 16 18  1  0
 16 19  1  0
 19 20  1  0
  3 21  1  0
  3 22  1  0
  3 23  1  0
  5 24  1  0
  7 25  1  0
  7 26  1  0
  9 27  1  0
 10 28  1  0
 10 29  1  0
 19 30  1  0
 19 31  1  0
 20 32  1  0
 20 33  1  0
M  CHG  4  14  -1  15  -1  18  -1  20   1
M  END
>  <filename_input>  (2) 
8AQL_PLG_docked.sdf

>  <pdb_id>  (2) 
8AQL_PLG

>  <pose_rank>  (2) 
1

>  <num_atoms_heavy>  (2) 
20

>  <num_torsions>  (2) 
7

>  <pose>  (2) 
[3.4347709623972853, 55.65091183602641, 6.979266135943955, 1.9276556628236383, 2.7394481046858874, -0.2959896929766234, 1.62286334993557, 0.914508197616277, 1.3924563994411427, -1.6029867929234332, 0.5289006339443558, -1.5852141156730657, 2.6607261481663427]

>  <energy>  (2) 
-742.4585197422656

>  <inter_energy>  (2) 
-745.2485187409628

>  <intra_energy>  (2) 
8.15840266359436

>  <rmsd>  (2) 
5.39005

>  <sdf_rank>  (2) 
0

$$$$

     RDKit          3D

 33 33  0  0  0  0  0  0  0  0999 V2000
   -0.1605   53.0682    7.0708 N   0  0  0  0  0  0  0  0  0  0  0  0
    0.5005   54.0349    6.4300 C   0  0  0  0  0  0  0  0  0  0  0  0
   -0.2517   54.7773    5.3592 C   0  0  0  0  0  0  0  0  0  0  0  0
    1.8465   54.2959    6.7945 C   0  0  0  0  0  0  0  0  0  0  0  0
    2.5067   55.3043    6.1199 O   0  0  0  0  0  0  0  0  0  0  0  0
    2.4679   53.5826    7.7934 C   0  0  0  0  0  0  0  0  0  0  0  0
    3.9008   53.7934    8.2547 C   0  0  0  0  0  0  0  0  0  0  0  0
    1.7633   52.5964    8.4309 C   0  0  0  0  0  0  0  0  0  0  0  0
    0.4484   52.3632    8.0346 C   0  0  0  0  0  0  0  0  0  0  0  0
    2.3664   51.6804    9.4948 C   0  0  0  0  0  0  0  0  0  0  0  0
    1.6089   50.6558   10.0537 O   0  0  0  0  0  0  0  0  0  0  0  0
    2.3935   49.3656   10.5713 P   0  0  2  0  0  0  0  0  0  0  0  0
    3.8105   49.4411    9.9691 O   0  0  0  0  0  0  0  0  0  0  0  0
    1.6567   48.1573   10.0415 O   0  0  0  0  0  0  0  0  0  0  0  0
    2.4111   49.4645   12.0440 O   0  0  0  0  0  0  0  0  0  0  0  0
    5.0200   56.9490    7.5711 C   0  0  0  0  0  0  0  0  0  0  0  0
    5.1565   58.1909    7.7630 O   0  0  0  0  0  0  0  0  0  0  0  0
    5.9338   56.3483    6.9667 O   0  0  0  0  0  0  0  0  0  0  0  0
    3.7840   56.2181    8.0683 C   0  0  0  0  0  0  0  0  0  0  0  0
    4.2022   55.0641    8.8204 N   0  0  0  0  0  0  0  0  0  0  0  0
   -0.9604   55.4767    5.8267 H   0  0  0  0  0  0  0  0  0  0  0  0
    0.4585   55.3383    4.7339 H   0  0  0  0  0  0  0  0  0  0  0  0
   -0.8033   54.0597    4.7339 H   0  0  0  0  0  0  0  0  0  0  0  0
    3.4469   55.5172    6.3449 H   0  0  0  0  0  0  0  0  0  0  0  0
    4.1246   53.0279    9.0123 H   0  0  0  0  0  0  0  0  0  0  0  0
    4.5142   53.7256    7.3441 H   0  0  0  0  0  0  0  0  0  0  0  0
   -0.1164   51.5634    8.5357 H   0  0  0  0  0  0  0  0  0  0  0  0
    3.2498   51.2080    9.0405 H   0  0  0  0  0  0  0  0  0  0  0  0
    2.5296   52.3601   10.3441 H   0  0  0  0  0  0  0  0  0  0  0  0
    3.1931   56.8857    8.7127 H   0  0  0  0  0  0  0  0  0  0  0  0
    3.1645   55.9052    7.2149 H   0  0  0  0  0  0  0  0  0  0  0  0
    3.7483   55.1111    9.7438 H   0  0  0  0  0  0  0  0  0  0  0  0
    5.2307   55.1138    8.8460 H   0  0  0  0  0  0  0  0  0  0  0  0
  1  2  2  0
  1  9  1  0
  2  3  1  0
  2  4  1  0
  4  5  1  0
  4  6  2  0
  6  7  1  0
  6  8  1  0
  7 20  1  0
  8  9  2  0
  8 10  1  0
 10 11  1  0
 11 12  1  0
 12 13  2  0
 12 14  1  1
 12 15  1  0
 16 17  2  0
 16 18  1  0
 16 19  1  0
 19 20  1  0
  3 21  1  0
  3 22  1  0
  3 23  1  0
  5 24  1  0
  7 25  1  0
  7 26  1  0
  9 27  1  0
 10 28  1  0
 10 29  1  0
 19 30  1  0
 19 31  1  0
 20 32  1  0
 20 33  1  0
M  CHG  4  14  -1  15  -1  18  -1  20   1
M  END
>  <filename_input>  (3) 
8AQL_PLG_docked.sdf

>  <pdb_id>  (3) 
8AQL_PLG

>  <pose_rank>  (3) 
2

>  <num_atoms_heavy>  (3) 
20

>  <num_torsions>  (3) 
7

>  <pose>  (3) 
[-0.1604895235745879, 53.06824831448947, 7.070822857353957, -0.01101760805892115, 2.4092848761368804, -2.542661836655064, -4.718040400232311, 2.6132016196683687, 0.7574414924184603, 0.5949543619526921, 1.7804329273791986, 5.4699293149567145, -1.4149572661157535]

>  <energy>  (3) 
-588.8197557242877

>  <inter_energy>  (3) 
-643.9648612316732

>  <intra_energy>  (3) 
59.84664194892054

>  <rmsd>  (3) 
4.25584

>  <sdf_rank>  (3) 
0

$$$$

     RDKit          3D

 33 33  0  0  0  0  0  0  0  0999 V2000
    0.7775   50.1364    9.9590 N   0  0  0  0  0  0  0  0  0  0  0  0
    2.0583   50.0075   10.3127 C   0  0  0  0  0  0  0  0  0  0  0  0
    2.3968   48.8678   11.2348 C   0  0  0  0  0  0  0  0  0  0  0  0
    3.0015   50.9372    9.8042 C   0  0  0  0  0  0  0  0  0  0  0  0
    4.3208   50.7791   10.1812 O   0  0  0  0  0  0  0  0  0  0  0  0
    2.6206   51.9499    8.9545 C   0  0  0  0  0  0  0  0  0  0  0  0
    3.5577   52.9872    8.3576 C   0  0  0  0  0  0  0  0  0  0  0  0
    1.2991   52.0562    8.6116 C   0  0  0  0  0  0  0  0  0  0  0  0
    0.4031   51.1312    9.1424 C   0  0  0  0  0  0  0  0  0  0  0  0
    0.7390   53.1845    7.7466 C   0  0  0  0  0  0  0  0  0  0  0  0
    0.5888   53.0117    6.3742 O   0  0  0  0  0  0  0  0  0  0  0  0
   -0.6006   53.8045    5.6637 P   0  0  2  0  0  0  0  0  0  0  0  0
   -1.4758   54.3878    6.7907 O   0  0  0  0  0  0  0  0  0  0  0  0
   -1.3827   52.7966    4.8537 O   0  0  0  0  0  0  0  0  0  0  0  0
    0.0405   54.8611    4.8566 O   0  0  0  0  0  0  0  0  0  0  0  0
    5.7144   53.8650   10.7596 C   0  0  0  0  0  0  0  0  0  0  0  0
    6.9281   53.6429   11.0341 O   0  0  0  0  0  0  0  0  0  0  0  0
    4.8697   53.6847   11.6624 O   0  0  0  0  0  0  0  0  0  0  0  0
    5.3064   54.3413    9.3753 C   0  0  0  0  0  0  0  0  0  0  0  0
    3.9013   54.0852    9.1953 N   0  0  0  0  0  0  0  0  0  0  0  0
    2.2983   49.1993   12.2790 H   0  0  0  0  0  0  0  0  0  0  0  0
    1.7088   48.0297   11.0497 H   0  0  0  0  0  0  0  0  0  0  0  0
    3.4308   48.5412   11.0497 H   0  0  0  0  0  0  0  0  0  0  0  0
    5.0096   51.4073    9.8477 H   0  0  0  0  0  0  0  0  0  0  0  0
    4.4900   52.4747    8.0781 H   0  0  0  0  0  0  0  0  0  0  0  0
    3.0081   53.4255    7.5115 H   0  0  0  0  0  0  0  0  0  0  0  0
   -0.6612   51.2212    8.8792 H   0  0  0  0  0  0  0  0  0  0  0  0
   -0.2579   53.4229    8.1457 H   0  0  0  0  0  0  0  0  0  0  0  0
    1.5165   53.9596    7.8156 H   0  0  0  0  0  0  0  0  0  0  0  0
    5.5010   55.4199    9.2826 H   0  0  0  0  0  0  0  0  0  0  0  0
    5.8863   53.8065    8.6087 H   0  0  0  0  0  0  0  0  0  0  0  0
    3.4783   54.9323    8.7900 H   0  0  0  0  0  0  0  0  0  0  0  0
    3.5480   53.8356   10.1301 H   0  0  0  0  0  0  0  0  0  0  0  0
  1  2  2  0
  1  9  1  0
  2  3  1  0
  2  4  1  0
  4  5  1  0
  4  6  2  0
  6  7  1  0
  6  8  1  0
  7 20  1  0
  8  9  2  0
  8 10  1  0
 10 11  1  0
 11 12  1  0
 12 13  2  0
 12 14  1  6
 12 15  1  0
 16 17  2  0
 16 18  1  0
 16 19  1  0
 19 20  1  0
  3 21  1  0
  3 22  1  0
  3 23  1  0
  5 24  1  0
  7 25  1  0
  7 26  1  0
  9 27  1  0
 10 28  1  0
 10 29  1  0
 19 30  1  0
 19 31  1  0
 20 32  1  0
 20 33  1  0
M  CHG  4  14  -1  15  -1  18  -1  20   1
M  END
>  <filename_input>  (4) 
8AQL_PLG_docked.sdf

>  <pdb_id>  (4) 
8AQL_PLG

>  <pose_rank>  (4) 
3

>  <num_atoms_heavy>  (4) 
20

>  <num_torsions>  (4) 
7

>  <pose>  (4) 
[0.7775086700013627, 50.13638645916059, 9.959020888060346, -1.6701244165471125, 2.0284045447089483, 2.769869416211838, -0.9433604172916756, -0.5981851287487854, 0.89765823312099, -0.6274531366095139, 0.23993970913329973, -0.8462745369017678, -1.3433067819400757]

>  <energy>  (4) 
-628.7555248466806

>  <inter_energy>  (4) 
-601.5432201575823

>  <intra_energy>  (4) 
1.4627972046262827

>  <rmsd>  (4) 
6.50551

>  <sdf_rank>  (4) 
0

$$$$

     RDKit          3D

 33 33  0  0  0  0  0  0  0  0999 V2000
    3.5708   51.9183   10.0474 N   0  0  0  0  0  0  0  0  0  0  0  0
    2.2861   51.5703   10.1489 C   0  0  0  0  0  0  0  0  0  0  0  0
    1.9025   50.7267   11.3343 C   0  0  0  0  0  0  0  0  0  0  0  0
    1.3805   52.0116    9.1499 C   0  0  0  0  0  0  0  0  0  0  0  0
    0.0561   51.6422    9.2806 O   0  0  0  0  0  0  0  0  0  0  0  0
    1.8013   52.7917    8.0978 C   0  0  0  0  0  0  0  0  0  0  0  0
    0.9063   53.3139    6.9859 C   0  0  0  0  0  0  0  0  0  0  0  0
    3.1260   53.1305    8.0211 C   0  0  0  0  0  0  0  0  0  0  0  0
    3.9844   52.6665    9.0151 C   0  0  0  0  0  0  0  0  0  0  0  0
    3.7304   53.9186    6.8599 C   0  0  0  0  0  0  0  0  0  0  0  0
    3.7024   55.3097    6.8625 O   0  0  0  0  0  0  0  0  0  0  0  0
    4.9550   56.0646    7.5020 P   0  0  2  0  0  0  0  0  0  0  0  0
    6.1318   55.8701    6.5254 O   0  0  0  0  0  0  0  0  0  0  0  0
    5.2480   55.3945    8.8243 O   0  0  0  0  0  0  0  0  0  0  0  0
    4.5595   57.4821    7.6178 O   0  0  0  0  0  0  0  0  0  0  0  0
   -0.7942   55.2457    5.4810 C   0  0  0  0  0  0  0  0  0  0  0  0
   -0.2935   54.3434    4.7509 O   0  0  0  0  0  0  0  0  0  0  0  0
   -1.4260   56.1661    4.9200 O   0  0  0  0  0  0  0  0  0  0  0  0
   -0.6328   55.2004    6.9914 C   0  0  0  0  0  0  0  0  0  0  0  0
   -0.3529   53.8441    7.3845 N   0  0  0  0  0  0  0  0  0  0  0  0
    2.1473   51.2650   12.2619 H   0  0  0  0  0  0  0  0  0  0  0  0
    0.8224   50.5210   11.3038 H   0  0  0  0  0  0  0  0  0  0  0  0
    2.4576   49.7775   11.3038 H   0  0  0  0  0  0  0  0  0  0  0  0
   -0.6071   51.9301    8.6043 H   0  0  0  0  0  0  0  0  0  0  0  0
    1.4541   54.1107    6.4614 H   0  0  0  0  0  0  0  0  0  0  0  0
    0.6711   52.4378    6.3637 H   0  0  0  0  0  0  0  0  0  0  0  0
    5.0514   52.9262    8.9498 H   0  0  0  0  0  0  0  0  0  0  0  0
    4.7883   53.6244    6.7957 H   0  0  0  0  0  0  0  0  0  0  0  0
    3.0749   53.6587    6.0156 H   0  0  0  0  0  0  0  0  0  0  0  0
    0.1992   55.8530    7.2946 H   0  0  0  0  0  0  0  0  0  0  0  0
   -1.5558   55.5490    7.4778 H   0  0  0  0  0  0  0  0  0  0  0  0
   -1.0867   53.2439    6.9818 H   0  0  0  0  0  0  0  0  0  0  0  0
   -0.3288   53.8584    8.4141 H   0  0  0  0  0  0  0  0  0  0  0  0
  1  2  2  0
  1  9  1  0
  2  3  1  0
  2  4  1  0
  4  5  1  0
  4  6  2  0
  6  7  1  0
  6  8  1  0
  7 20  1  0
  8  9  2  0
  8 10  1  0
 10 11  1  0
 11 12  1  0
 12 13  2  0
 12 14  1  1
 12 15  1  0
 16 17  2  0
 16 18  1  0
 16 19  1  0
 19 20  1  0
  3 21  1  0
  3 22  1  0
  3 23  1  0
  5 24  1  0
  7 25  1  0
  7 26  1  0
  9 27  1  0
 10 28  1  0
 10 29  1  0
 19 30  1  0
 19 31  1  0
 20 32  1  0
 20 33  1  0
M  CHG  4  14  -1  15  -1  18  -1  20   1
M  END
>  <filename_input>  (5) 
8AQL_PLG_docked.sdf

>  <pdb_id>  (5) 
8AQL_PLG

>  <pose_rank>  (5) 
4

>  <num_atoms_heavy>  (5) 
20

>  <num_torsions>  (5) 
7

>  <pose>  (5) 
[3.570831889668505, 51.9182761606612, 10.047432962690891, -2.8834964976996713, -0.25662722325358756, -1.895539574543274, 26.365367128698395, -0.6529502574776511, 16.4812820986384, 2.4639815033315244, 0.08156280954972284, -1.859662985359222, -6.197704219207045]

>  <energy>  (5) 
-496.28967840287953

>  <inter_energy>  (5) 
-545.8130147580792

>  <intra_energy>  (5) 
48.45802288499796

>  <rmsd>  (5) 
4.92752

>  <sdf_rank>  (5) 
0

$$$$

     RDKit          3D

 33 33  0  0  0  0  0  0  0  0999 V2000
   -2.4011   57.4170   12.2435 N   0  0  0  0  0  0  0  0  0  0  0  0
   -1.2612   58.0101   12.6055 C   0  0  0  0  0  0  0  0  0  0  0  0
   -1.1428   59.4833   12.3234 C   0  0  0  0  0  0  0  0  0  0  0  0
   -0.2526   57.2265   13.2230 C   0  0  0  0  0  0  0  0  0  0  0  0
    0.9152   57.8648   13.5924 O   0  0  0  0  0  0  0  0  0  0  0  0
   -0.4354   55.8837   13.4601 C   0  0  0  0  0  0  0  0  0  0  0  0
    0.5831   54.9670   14.1179 C   0  0  0  0  0  0  0  0  0  0  0  0
   -1.6152   55.3044   13.0758 C   0  0  0  0  0  0  0  0  0  0  0  0
   -2.5746   56.1059   12.4613 C   0  0  0  0  0  0  0  0  0  0  0  0
   -1.9043   53.8097   13.2066 C   0  0  0  0  0  0  0  0  0  0  0  0
   -1.5910   52.9381   12.1682 O   0  0  0  0  0  0  0  0  0  0  0  0
   -1.8304   53.4599   10.6788 P   0  0  2  0  0  0  0  0  0  0  0  0
   -0.7910   52.7478    9.7905 O   0  0  0  0  0  0  0  0  0  0  0  0
   -1.5866   54.9512   10.6875 O   0  0  0  0  0  0  0  0  0  0  0  0
   -3.2127   53.0759   10.3310 O   0  0  0  0  0  0  0  0  0  0  0  0
   -0.1298   55.9154   17.5245 C   0  0  0  0  0  0  0  0  0  0  0  0
   -0.8814   55.8758   18.5401 O   0  0  0  0  0  0  0  0  0  0  0  0
    1.0379   56.3322   17.6790 O   0  0  0  0  0  0  0  0  0  0  0  0
   -0.6372   55.4629   16.1654 C   0  0  0  0  0  0  0  0  0  0  0  0
    0.4057   54.7195   15.5082 N   0  0  0  0  0  0  0  0  0  0  0  0
   -1.0983   60.0360   13.2734 H   0  0  0  0  0  0  0  0  0  0  0  0
   -0.2264   59.6734   11.7454 H   0  0  0  0  0  0  0  0  0  0  0  0
   -2.0170   59.8174   11.7454 H   0  0  0  0  0  0  0  0  0  0  0  0
    1.6432   57.3529   14.0262 H   0  0  0  0  0  0  0  0  0  0  0  0
    0.5466   53.9983   13.5981 H   0  0  0  0  0  0  0  0  0  0  0  0
    1.5461   55.4921   14.0347 H   0  0  0  0  0  0  0  0  0  0  0  0
   -3.5184   55.6412   12.1399 H   0  0  0  0  0  0  0  0  0  0  0  0
   -1.3530   53.4579   14.0911 H   0  0  0  0  0  0  0  0  0  0  0  0
   -3.0031   53.7713   13.2400 H   0  0  0  0  0  0  0  0  0  0  0  0
   -1.5226   54.8232   16.2950 H   0  0  0  0  0  0  0  0  0  0  0  0
   -0.9141   56.3374   15.5583 H   0  0  0  0  0  0  0  0  0  0  0  0
    0.1960   53.7177   15.6234 H   0  0  0  0  0  0  0  0  0  0  0  0
    1.2819   55.0275   15.9536 H   0  0  0  0  0  0  0  0  0  0  0  0
  1  2  2  0
  1  9  1  0
  2  3  1  0
  2  4  1  0
  4  5  1  0
  4  6  2  0
  6  7  1  0
  6  8  1  0
  7 20  1  0
  8  9  2  0
  8 10  1  0
 10 11  1  0
 11 12  1  0
 12 13  2  0
 12 14  1  1
 12 15  1  0
 16 17  2  0
 16 18  1  0
 16 19  1  0
 19 20  1  0
  3 21  1  0
  3 22  1  0
  3 23  1  0
  5 24  1  0
  7 25  1  0
  7 26  1  0
  9 27  1  0
 10 28  1  0
 10 29  1  0
 19 30  1  0
 19 31  1  0
 20 32  1  0
 20 33  1  0
M  CHG  4  14  -1  15  -1  18  -1  20   1
M  END
>  <filename_input>  (6) 
8AQL_PLG_docked.sdf

>  <pdb_id>  (6) 
8AQL_PLG

>  <pose_rank>  (6) 
5

>  <num_atoms_heavy>  (6) 
20

>  <num_torsions>  (6) 
7

>  <pose>  (6) 
[-2.401056239153463, 57.417026978288675, 12.243542744094174, 2.2089177224806793, 8.96015244094172, -3.435119369998505, -117.20699621987589, -109.71972510440764, -31.11111098042274, 6.698891828431069, -28.12117556501086, 2.1634790483789015, 7.748652218884871]

>  <energy>  (6) 
255.20293945185702

>  <inter_energy>  (6) 
121.92476480139332

>  <intra_energy>  (6) 
135.78517245616825

>  <rmsd>  (6) 
8.55803

>  <sdf_rank>  (6) 
0

$$$$

     RDKit          3D

 33 33  0  0  0  0  0  0  0  0999 V2000
    1.1419   50.9753   10.0197 N   0  0  0  0  0  0  0  0  0  0  0  0
    2.3974   51.2734   10.3619 C   0  0  0  0  0  0  0  0  0  0  0  0
    2.9386   50.6130   11.6008 C   0  0  0  0  0  0  0  0  0  0  0  0
    3.1280   52.1775    9.5486 C   0  0  0  0  0  0  0  0  0  0  0  0
    4.4264   52.4655    9.9215 O   0  0  0  0  0  0  0  0  0  0  0  0
    2.5709   52.7356    8.4213 C   0  0  0  0  0  0  0  0  0  0  0  0
    3.2755   53.7075    7.4891 C   0  0  0  0  0  0  0  0  0  0  0  0
    1.2804   52.4109    8.0979 C   0  0  0  0  0  0  0  0  0  0  0  0
    0.5935   51.5294    8.9294 C   0  0  0  0  0  0  0  0  0  0  0  0
    0.5235   53.0277    6.9225 C   0  0  0  0  0  0  0  0  0  0  0  0
   -0.2968   54.1348    7.1160 O   0  0  0  0  0  0  0  0  0  0  0  0
   -0.8808   54.8483    5.8130 P   0  0  2  0  0  0  0  0  0  0  0  0
    0.3161   55.5046    5.0967 O   0  0  0  0  0  0  0  0  0  0  0  0
   -1.8575   55.9005    6.2846 O   0  0  0  0  0  0  0  0  0  0  0  0
   -1.4921   53.7767    5.0024 O   0  0  0  0  0  0  0  0  0  0  0  0
    5.2590   56.6074    7.8571 C   0  0  0  0  0  0  0  0  0  0  0  0
    6.1955   56.5303    7.0115 O   0  0  0  0  0  0  0  0  0  0  0  0
    4.7897   57.7382    8.1061 O   0  0  0  0  0  0  0  0  0  0  0  0
    4.7242   55.3589    8.5387 C   0  0  0  0  0  0  0  0  0  0  0  0
    3.4417   55.0367    7.9699 N   0  0  0  0  0  0  0  0  0  0  0  0
    2.5292   51.1126   12.4912 H   0  0  0  0  0  0  0  0  0  0  0  0
    2.6465   49.5526   11.6084 H   0  0  0  0  0  0  0  0  0  0  0  0
    4.0358   50.6912   11.6084 H   0  0  0  0  0  0  0  0  0  0  0  0
    4.9695   53.0917    9.3802 H   0  0  0  0  0  0  0  0  0  0  0  0
    4.2752   53.3014    7.2754 H   0  0  0  0  0  0  0  0  0  0  0  0
    2.6219   53.7944    6.6086 H   0  0  0  0  0  0  0  0  0  0  0  0
   -0.4475   51.2762    8.6796 H   0  0  0  0  0  0  0  0  0  0  0  0
    1.2796   53.3211    6.1794 H   0  0  0  0  0  0  0  0  0  0  0  0
   -0.1884   52.2370    6.6432 H   0  0  0  0  0  0  0  0  0  0  0  0
    5.4207   54.5226    8.3790 H   0  0  0  0  0  0  0  0  0  0  0  0
    4.6213   55.5365    9.6194 H   0  0  0  0  0  0  0  0  0  0  0  0
    3.2798   55.6777    7.1800 H   0  0  0  0  0  0  0  0  0  0  0  0
    2.7687   55.1326    8.7437 H   0  0  0  0  0  0  0  0  0  0  0  0
  1  2  2  0
  1  9  1  0
  2  3  1  0
  2  4  1  0
  4  5  1  0
  4  6  2  0
  6  7  1  0
  6  8  1  0
  7 20  1  0
  8  9  2  0
  8 10  1  0
 10 11  1  0
 11 12  1  0
 12 13  2  0
 12 14  1  1
 12 15  1  0
 16 17  2  0
 16 18  1  0
 16 19  1  0
 19 20  1  0
  3 21  1  0
  3 22  1  0
  3 23  1  0
  5 24  1  0
  7 25  1  0
  7 26  1  0
  9 27  1  0
 10 28  1  0
 10 29  1  0
 19 30  1  0
 19 31  1  0
 20 32  1  0
 20 33  1  0
M  CHG  4  14  -1  15  -1  18  -1  20   1
M  END
>  <filename_input>  (7) 
8AQL_PLG_docked.sdf

>  <pdb_id>  (7) 
8AQL_PLG

>  <pose_rank>  (7) 
6

>  <num_atoms_heavy>  (7) 
20

>  <num_torsions>  (7) 
7

>  <pose>  (7) 
[1.1419492717260638, 50.97533899419554, 10.019693323717737, -1.9263819926398198, 2.6168998503037098, 2.539989690816627, 11.73865388103473, 30.32704358400191, 4.948475905855951, 1.0052355776541115, -34.47905320378663, -13.03139774145156, -2.3515562135479717]

>  <energy>  (7) 
-548.1060919481397

>  <inter_energy>  (7) 
-540.9718895586224

>  <intra_energy>  (7) 
5.089748853086216

>  <rmsd>  (7) 
6.07832

>  <sdf_rank>  (7) 
0

$$$$

     RDKit          3D

 33 33  0  0  0  0  0  0  0  0999 V2000
    0.5102   54.5359    5.6702 N   0  0  0  0  0  0  0  0  0  0  0  0
   -0.0468   53.4961    6.2951 C   0  0  0  0  0  0  0  0  0  0  0  0
   -1.4103   53.0704    5.8223 C   0  0  0  0  0  0  0  0  0  0  0  0
    0.6711   52.8696    7.3462 C   0  0  0  0  0  0  0  0  0  0  0  0
    0.0751   51.7929    7.9733 O   0  0  0  0  0  0  0  0  0  0  0  0
    1.9213   53.3070    7.7181 C   0  0  0  0  0  0  0  0  0  0  0  0
    2.7653   52.6980    8.8257 C   0  0  0  0  0  0  0  0  0  0  0  0
    2.4648   54.3770    7.0585 C   0  0  0  0  0  0  0  0  0  0  0  0
    1.7223   54.9717    6.0411 C   0  0  0  0  0  0  0  0  0  0  0  0
    3.8049   55.0083    7.4334 C   0  0  0  0  0  0  0  0  0  0  0  0
    4.3667   55.9969    6.6315 O   0  0  0  0  0  0  0  0  0  0  0  0
    5.9026   56.3539    6.8797 P   0  0  2  0  0  0  0  0  0  0  0  0
    6.4484   55.2944    7.8573 O   0  0  0  0  0  0  0  0  0  0  0  0
    5.9417   57.7265    7.5106 O   0  0  0  0  0  0  0  0  0  0  0  0
    6.5561   56.2778    5.5583 O   0  0  0  0  0  0  0  0  0  0  0  0
    2.4703   49.5541   10.7994 C   0  0  0  0  0  0  0  0  0  0  0  0
    1.9439   48.7741    9.9554 O   0  0  0  0  0  0  0  0  0  0  0  0
    2.4195   49.2292   12.0048 O   0  0  0  0  0  0  0  0  0  0  0  0
    3.1457   50.8399   10.3522 C   0  0  0  0  0  0  0  0  0  0  0  0
    2.4128   51.3822    9.2383 N   0  0  0  0  0  0  0  0  0  0  0  0
   -2.0536   52.8696    6.6916 H   0  0  0  0  0  0  0  0  0  0  0  0
   -1.8546   53.8726    5.2148 H   0  0  0  0  0  0  0  0  0  0  0  0
   -1.3194   52.1579    5.2148 H   0  0  0  0  0  0  0  0  0  0  0  0
    0.5436   51.3285    8.7115 H   0  0  0  0  0  0  0  0  0  0  0  0
    3.8079   52.6711    8.4759 H   0  0  0  0  0  0  0  0  0  0  0  0
    2.5970   53.3356    9.7061 H   0  0  0  0  0  0  0  0  0  0  0  0
    2.1505   55.8394    5.5177 H   0  0  0  0  0  0  0  0  0  0  0  0
    3.6777   55.4479    8.4338 H   0  0  0  0  0  0  0  0  0  0  0  0
    4.5115   54.1719    7.3282 H   0  0  0  0  0  0  0  0  0  0  0  0
    3.1495   51.5636   11.1806 H   0  0  0  0  0  0  0  0  0  0  0  0
    4.1841   50.6337   10.0534 H   0  0  0  0  0  0  0  0  0  0  0  0
    1.4153   51.3916    9.4949 H   0  0  0  0  0  0  0  0  0  0  0  0
    2.6435   50.7751    8.4389 H   0  0  0  0  0  0  0  0  0  0  0  0
  1  2  2  0
  1  9  1  0
  2  3  1  0
  2  4  1  0
  4  5  1  0
  4  6  2  0
  6  7  1  0
  6  8  1  0
  7 20  1  0
  8  9  2  0
  8 10  1  0
 10 11  1  0
 11 12  1  0
 12 13  2  0
 12 14  1  1
 12 15  1  0
 16 17  2  0
 16 18  1  0
 16 19  1  0
 19 20  1  0
  3 21  1  0
  3 22  1  0
  3 23  1  0
  5 24  1  0
  7 25  1  0
  7 26  1  0
  9 27  1  0
 10 28  1  0
 10 29  1  0
 19 30  1  0
 19 31  1  0
 20 32  1  0
 20 33  1  0
M  CHG  4  14  -1  15  -1  18  -1  20   1
M  END
>  <filename_input>  (8) 
8AQL_PLG_docked.sdf

>  <pdb_id>  (8) 
8AQL_PLG

>  <pose_rank>  (8) 
7

>  <num_atoms_heavy>  (8) 
20

>  <num_torsions>  (8) 
7

>  <pose>  (8) 
[0.5102242742283204, 54.535909459952094, 5.670188458087231, -1.0561392476856992, 1.38877038871701, 1.1353461484726293, -24.343721017990777, -24.718588666497855, -13.157386855968983, 3.474414614032403, 7.883934900747894, 6.22211867111827, -1.0020596644709594]

>  <energy>  (8) 
-532.8754123544607

>  <inter_energy>  (8) 
-524.6251800707124

>  <intra_energy>  (8) 
19.703702401449437

>  <rmsd>  (8) 
6.44211

>  <sdf_rank>  (8) 
0

$$$$

     RDKit          3D

 33 33  0  0  0  0  0  0  0  0999 V2000
    2.1029   54.5180    6.3805 N   0  0  0  0  0  0  0  0  0  0  0  0
    0.8055   54.2060    6.4187 C   0  0  0  0  0  0  0  0  0  0  0  0
   -0.1102   54.9987    5.5260 C   0  0  0  0  0  0  0  0  0  0  0  0
    0.3813   53.1643    7.2833 C   0  0  0  0  0  0  0  0  0  0  0  0
   -0.9653   52.8575    7.3006 O   0  0  0  0  0  0  0  0  0  0  0  0
    1.2786   52.4736    8.0646 C   0  0  0  0  0  0  0  0  0  0  0  0
    0.9192   51.3430    9.0148 C   0  0  0  0  0  0  0  0  0  0  0  0
    2.6025   52.8184    8.0038 C   0  0  0  0  0  0  0  0  0  0  0  0
    2.9760   53.8551    7.1518 C   0  0  0  0  0  0  0  0  0  0  0  0
    3.6812   52.1859    8.8820 C   0  0  0  0  0  0  0  0  0  0  0  0
    4.3364   52.9431    9.8481 O   0  0  0  0  0  0  0  0  0  0  0  0
    5.8163   53.4368    9.5101 P   0  0  2  0  0  0  0  0  0  0  0  0
    6.3335   54.1686   10.7645 O   0  0  0  0  0  0  0  0  0  0  0  0
    5.7086   54.3937    8.3456 O   0  0  0  0  0  0  0  0  0  0  0  0
    6.5951   52.2170    9.2195 O   0  0  0  0  0  0  0  0  0  0  0  0
    2.1666   49.0949   11.0501 C   0  0  0  0  0  0  0  0  0  0  0  0
    1.9198   48.0320   10.4119 O   0  0  0  0  0  0  0  0  0  0  0  0
    1.9658   49.0946   12.2833 O   0  0  0  0  0  0  0  0  0  0  0  0
    2.6955   50.3258   10.3329 C   0  0  0  0  0  0  0  0  0  0  0  0
    1.6370   51.2972   10.2429 N   0  0  0  0  0  0  0  0  0  0  0  0
   -0.7986   55.5946    6.1433 H   0  0  0  0  0  0  0  0  0  0  0  0
    0.4871   55.6696    4.8911 H   0  0  0  0  0  0  0  0  0  0  0  0
   -0.6886   54.3114    4.8911 H   0  0  0  0  0  0  0  0  0  0  0  0
   -1.3013   52.1368    7.8905 H   0  0  0  0  0  0  0  0  0  0  0  0
   -0.1502   51.4350    9.2553 H   0  0  0  0  0  0  0  0  0  0  0  0
    1.1884   50.4180    8.4840 H   0  0  0  0  0  0  0  0  0  0  0  0
    4.0368   54.1432    7.1099 H   0  0  0  0  0  0  0  0  0  0  0  0
    3.2064   51.3450    9.4086 H   0  0  0  0  0  0  0  0  0  0  0  0
    4.4814   51.9536    8.1638 H   0  0  0  0  0  0  0  0  0  0  0  0
    3.5396   50.7490   10.8972 H   0  0  0  0  0  0  0  0  0  0  0  0
    3.0409   50.0530    9.3248 H   0  0  0  0  0  0  0  0  0  0  0  0
    2.0520   52.2272   10.3976 H   0  0  0  0  0  0  0  0  0  0  0  0
    0.9459   51.0135   10.9520 H   0  0  0  0  0  0  0  0  0  0  0  0
  1  2  2  0
  1  9  1  0
  2  3  1  0
  2  4  1  0
  4  5  1  0
  4  6  2  0
  6  7  1  0
  6  8  1  0
  7 20  1  0
  8  9  2  0
  8 10  1  0
 10 11  1  0
 11 12  1  0
 12 13  2  0
 12 14  1  6
 12 15  1  0
 16 17  2  0
 16 18  1  0
 16 19  1  0
 19 20  1  0
  3 21  1  0
  3 22  1  0
  3 23  1  0
  5 24  1  0
  7 25  1  0
  7 26  1  0
  9 27  1  0
 10 28  1  0
 10 29  1  0
 19 30  1  0
 19 31  1  0
 20 32  1  0
 20 33  1  0
M  CHG  4  14  -1  15  -1  18  -1  20   1
M  END
>  <filename_input>  (9) 
8AQL_PLG_docked.sdf

>  <pdb_id>  (9) 
8AQL_PLG

>  <pose_rank>  (9) 
8

>  <num_atoms_heavy>  (9) 
20

>  <num_torsions>  (9) 
7

>  <pose>  (9) 
[2.102856850857552, 54.51802317443319, 6.3805332741315475, 1.5146331894743619, -4.418640922510727, -1.7781964072884664, -8.2996785014345, 1.6958942303934195, 1.019797181065324, -1.5798888920500602, 2.8929020035707964, 1.030708921395006, 2.041492014059203]

>  <energy>  (9) 
-430.96472037916755

>  <inter_energy>  (9) 
-533.7873477487869

>  <intra_energy>  (9) 
108.5478987908751

>  <rmsd>  (9) 
5.24617

>  <sdf_rank>  (9) 
0

$$$$

     RDKit          3D

 33 33  0  0  0  0  0  0  0  0999 V2000
   -1.0316   52.6955    7.2486 N   0  0  0  0  0  0  0  0  0  0  0  0
   -0.5363   53.4914    6.2983 C   0  0  0  0  0  0  0  0  0  0  0  0
   -1.5118   54.0312    5.2880 C   0  0  0  0  0  0  0  0  0  0  0  0
    0.8542   53.7729    6.3029 C   0  0  0  0  0  0  0  0  0  0  0  0
    1.3409   54.6030    5.3120 O   0  0  0  0  0  0  0  0  0  0  0  0
    1.6860   53.2518    7.2669 C   0  0  0  0  0  0  0  0  0  0  0  0
    3.1829   53.5004    7.3552 C   0  0  0  0  0  0  0  0  0  0  0  0
    1.1476   52.4376    8.2274 C   0  0  0  0  0  0  0  0  0  0  0  0
   -0.2197   52.1760    8.1801 C   0  0  0  0  0  0  0  0  0  0  0  0
    1.9778   51.7316    9.2984 C   0  0  0  0  0  0  0  0  0  0  0  0
    1.3852   50.8081   10.1540 O   0  0  0  0  0  0  0  0  0  0  0  0
    2.2955   49.6043   10.6737 P   0  0  2  0  0  0  0  0  0  0  0  0
    1.6266   48.3041   10.1857 O   0  0  0  0  0  0  0  0  0  0  0  0
    2.2925   49.6669   12.1835 O   0  0  0  0  0  0  0  0  0  0  0  0
    3.6243   49.8069   10.0635 O   0  0  0  0  0  0  0  0  0  0  0  0
    5.3622   53.8817   10.3581 C   0  0  0  0  0  0  0  0  0  0  0  0
    5.0651   54.5082   11.4150 O   0  0  0  0  0  0  0  0  0  0  0  0
    6.1484   52.9155   10.4543 O   0  0  0  0  0  0  0  0  0  0  0  0
    4.7725   54.2942    9.0197 C   0  0  0  0  0  0  0  0  0  0  0  0
    3.7780   53.3266    8.6363 N   0  0  0  0  0  0  0  0  0  0  0  0
   -2.3589   54.4999    5.8102 H   0  0  0  0  0  0  0  0  0  0  0  0
   -1.0100   54.7800    4.6575 H   0  0  0  0  0  0  0  0  0  0  0  0
   -1.8797   53.2083    4.6575 H   0  0  0  0  0  0  0  0  0  0  0  0
    2.3055   54.8237    5.2806 H   0  0  0  0  0  0  0  0  0  0  0  0
    3.6789   52.8081    6.6589 H   0  0  0  0  0  0  0  0  0  0  0  0
    3.3176   54.5647    7.1120 H   0  0  0  0  0  0  0  0  0  0  0  0
   -0.6533   51.5122    8.9425 H   0  0  0  0  0  0  0  0  0  0  0  0
    2.7859   51.2017    8.7729 H   0  0  0  0  0  0  0  0  0  0  0  0
    2.2594   52.5519    9.9751 H   0  0  0  0  0  0  0  0  0  0  0  0
    4.3075   55.2871    9.1101 H   0  0  0  0  0  0  0  0  0  0  0  0
    5.5652   54.3392    8.2584 H   0  0  0  0  0  0  0  0  0  0  0  0
    3.0246   53.3575    9.3380 H   0  0  0  0  0  0  0  0  0  0  0  0
    4.2783   52.4277    8.5846 H   0  0  0  0  0  0  0  0  0  0  0  0
  1  2  2  0
  1  9  1  0
  2  3  1  0
  2  4  1  0
  4  5  1  0
  4  6  2  0
  6  7  1  0
  6  8  1  0
  7 20  1  0
  8  9  2  0
  8 10  1  0
 10 11  1  0
 11 12  1  0
 12 13  2  0
 12 14  1  1
 12 15  1  0
 16 17  2  0
 16 18  1  0
 16 19  1  0
 19 20  1  0
  3 21  1  0
  3 22  1  0
  3 23  1  0
  5 24  1  0
  7 25  1  0
  7 26  1  0
  9 27  1  0
 10 28  1  0
 10 29  1  0
 19 30  1  0
 19 31  1  0
 20 32  1  0
 20 33  1  0
M  CHG  4  14  -1  15  -1  18  -1  20   1
M  END
>  <filename_input>  (10) 
8AQL_PLG_docked.sdf

>  <pdb_id>  (10) 
8AQL_PLG

>  <pose_rank>  (10) 
9

>  <num_atoms_heavy>  (10) 
20

>  <num_torsions>  (10) 
7

>  <pose>  (10) 
[-1.0315667909240216, 52.6954726204079, 7.248634242684959, -0.223783593340481, 2.1849006948767604, -2.9290638731688885, 3.20516453684974, 1.04836904202742, -0.339371515426555, 0.9906949323555344, 1.8447130007322114, -0.8596495404185599, -3.2438092323821195]

>  <energy>  (10) 
-547.5202661753497

>  <inter_energy>  (10) 
-584.4358794580993

>  <intra_energy>  (10) 
43.589614875702964

>  <rmsd>  (10) 
4.91602

>  <sdf_rank>  (10) 
0

$$$$

     RDKit          3D

 33 33  0  0  0  0  0  0  0  0999 V2000
    5.4202   55.2017    9.3504 N   0  0  0  0  0  0  0  0  0  0  0  0
    4.7890   55.5666    8.2322 C   0  0  0  0  0  0  0  0  0  0  0  0
    5.2606   56.8317    7.5682 C   0  0  0  0  0  0  0  0  0  0  0  0
    3.7329   54.7514    7.7498 C   0  0  0  0  0  0  0  0  0  0  0  0
    3.0993   55.1482    6.5884 O   0  0  0  0  0  0  0  0  0  0  0  0
    3.3625   53.5996    8.4047 C   0  0  0  0  0  0  0  0  0  0  0  0
    2.2498   52.6634    7.9623 C   0  0  0  0  0  0  0  0  0  0  0  0
    4.0286   53.2531    9.5500 C   0  0  0  0  0  0  0  0  0  0  0  0
    5.0508   54.0871    9.9969 C   0  0  0  0  0  0  0  0  0  0  0  0
    3.6563   52.0474   10.4116 C   0  0  0  0  0  0  0  0  0  0  0  0
    3.1084   52.2286   11.6777 O   0  0  0  0  0  0  0  0  0  0  0  0
    1.9627   51.2136   12.1304 P   0  0  2  0  0  0  0  0  0  0  0  0
    1.1205   50.9121   10.8749 O   0  0  0  0  0  0  0  0  0  0  0  0
    1.1274   51.9238   13.1703 O   0  0  0  0  0  0  0  0  0  0  0  0
    2.6589   50.0126   12.6322 O   0  0  0  0  0  0  0  0  0  0  0  0
   -0.1658   53.4038    5.2222 C   0  0  0  0  0  0  0  0  0  0  0  0
   -0.2438   54.6318    4.9327 O   0  0  0  0  0  0  0  0  0  0  0  0
   -1.1641   52.6870    4.9972 O   0  0  0  0  0  0  0  0  0  0  0  0
    1.1070   52.8263    5.8187 C   0  0  0  0  0  0  0  0  0  0  0  0
    1.2032   53.2448    7.1927 N   0  0  0  0  0  0  0  0  0  0  0  0
    5.5354   57.5689    8.3370 H   0  0  0  0  0  0  0  0  0  0  0  0
    6.1372   56.6119    6.9410 H   0  0  0  0  0  0  0  0  0  0  0  0
    4.4540   57.2393    6.9410 H   0  0  0  0  0  0  0  0  0  0  0  0
    2.3575   54.6064    6.2193 H   0  0  0  0  0  0  0  0  0  0  0  0
    2.7049   51.8642    7.3588 H   0  0  0  0  0  0  0  0  0  0  0  0
    1.7725   52.3170    8.8908 H   0  0  0  0  0  0  0  0  0  0  0  0
    5.5795   53.8186   10.9234 H   0  0  0  0  0  0  0  0  0  0  0  0
    2.9280   51.4595    9.8338 H   0  0  0  0  0  0  0  0  0  0  0  0
    4.6312   51.5855   10.6267 H   0  0  0  0  0  0  0  0  0  0  0  0
    1.0748   51.7280    5.7675 H   0  0  0  0  0  0  0  0  0  0  0  0
    1.9813   53.1846    5.2554 H   0  0  0  0  0  0  0  0  0  0  0  0
    0.3112   53.0142    7.6532 H   0  0  0  0  0  0  0  0  0  0  0  0
    1.4186   54.2513    7.1565 H   0  0  0  0  0  0  0  0  0  0  0  0
  1  2  2  0
  1  9  1  0
  2  3  1  0
  2  4  1  0
  4  5  1  0
  4  6  2  0
  6  7  1  0
  6  8  1  0
  7 20  1  0
  8  9  2  0
  8 10  1  0
 10 11  1  0
 11 12  1  0
 12 13  2  0
 12 14  1  1
 12 15  1  0
 16 17  2  0
 16 18  1  0
 16 19  1  0
 19 20  1  0
  3 21  1  0
  3 22  1  0
  3 23  1  0
  5 24  1  0
  7 25  1  0
  7 26  1  0
  9 27  1  0
 10 28  1  0
 10 29  1  0
 19 30  1  0
 19 31  1  0
 20 32  1  0
 20 33  1  0
M  CHG  4  14  -1  15  -1  18  -1  20   1
M  END
>  <filename_input>  (11) 
8AQL_PLG_docked.sdf

>  <pdb_id>  (11) 
8AQL_PLG

>  <pose_rank>  (11) 
10

>  <num_atoms_heavy>  (11) 
20

>  <num_torsions>  (11) 
7

>  <pose>  (11) 
[5.4202273418295706, 55.20165422947253, 9.350377226772729, -0.2820633725535218, 3.051227209295732, 5.611502273627704, -6.279361411427085, 11.726522154275205, -6.829189493570419, 4.141015424056956, -3.35289463958938, -0.9743537754512074, -1.8010796798873216]

>  <energy>  (11) 
-744.0393735421783

>  <inter_energy>  (11) 
-766.1205602322545

>  <intra_energy>  (11) 
22.664226074782363

>  <rmsd>  (11) 
1.26696

>  <sdf_rank>  (11) 
0

$$$$

     RDKit          3D

 33 33  0  0  0  0  0  0  0  0999 V2000
    2.9958   54.3618    6.9066 N   0  0  0  0  0  0  0  0  0  0  0  0
    1.8391   53.7068    7.0291 C   0  0  0  0  0  0  0  0  0  0  0  0
    0.7744   54.0125    6.0109 C   0  0  0  0  0  0  0  0  0  0  0  0
    1.6913   52.7799    8.0929 C   0  0  0  0  0  0  0  0  0  0  0  0
    0.4868   52.1116    8.1947 O   0  0  0  0  0  0  0  0  0  0  0  0
    2.7142   52.5426    8.9817 C   0  0  0  0  0  0  0  0  0  0  0  0
    2.6500   51.5678   10.1461 C   0  0  0  0  0  0  0  0  0  0  0  0
    3.8879   53.2315    8.8301 C   0  0  0  0  0  0  0  0  0  0  0  0
    3.9881   54.1417    7.7804 C   0  0  0  0  0  0  0  0  0  0  0  0
    5.0641   53.1197    9.7990 C   0  0  0  0  0  0  0  0  0  0  0  0
    6.3209   52.7374    9.3402 O   0  0  0  0  0  0  0  0  0  0  0  0
    7.4782   52.5767   10.4277 P   0  0  2  0  0  0  0  0  0  0  0  0
    7.5560   51.0754   10.7691 O   0  0  0  0  0  0  0  0  0  0  0  0
    7.0596   53.3745   11.6409 O   0  0  0  0  0  0  0  0  0  0  0  0
    8.7132   53.0630    9.7818 O   0  0  0  0  0  0  0  0  0  0  0  0
    1.7607   47.9971   10.2652 C   0  0  0  0  0  0  0  0  0  0  0  0
    1.3933   47.1321    9.4199 O   0  0  0  0  0  0  0  0  0  0  0  0
    1.3642   47.8670   11.4429 O   0  0  0  0  0  0  0  0  0  0  0  0
    2.6605   49.1507    9.8541 C   0  0  0  0  0  0  0  0  0  0  0  0
    1.9055   50.3740    9.9309 N   0  0  0  0  0  0  0  0  0  0  0  0
   -0.1597   54.2807    6.5262 H   0  0  0  0  0  0  0  0  0  0  0  0
    1.1001   54.8534    5.3809 H   0  0  0  0  0  0  0  0  0  0  0  0
    0.6044   53.1269    5.3809 H   0  0  0  0  0  0  0  0  0  0  0  0
    0.3442   51.4566    8.9232 H   0  0  0  0  0  0  0  0  0  0  0  0
    3.6810   51.2786   10.3979 H   0  0  0  0  0  0  0  0  0  0  0  0
    2.1191   52.1032   10.9470 H   0  0  0  0  0  0  0  0  0  0  0  0
    4.9249   54.7062    7.6633 H   0  0  0  0  0  0  0  0  0  0  0  0
    5.1854   54.1094   10.2636 H   0  0  0  0  0  0  0  0  0  0  0  0
    4.7717   52.2818   10.4489 H   0  0  0  0  0  0  0  0  0  0  0  0
    3.5249   49.2059   10.5322 H   0  0  0  0  0  0  0  0  0  0  0  0
    3.0218   48.9968    8.8266 H   0  0  0  0  0  0  0  0  0  0  0  0
    1.2347   50.2795   10.7067 H   0  0  0  0  0  0  0  0  0  0  0  0
    1.4734   50.4861    9.0026 H   0  0  0  0  0  0  0  0  0  0  0  0
  1  2  2  0
  1  9  1  0
  2  3  1  0
  2  4  1  0
  4  5  1  0
  4  6  2  0
  6  7  1  0
  6  8  1  0
  7 20  1  0
  8  9  2  0
  8 10  1  0
 10 11  1  0
 11 12  1  0
 12 13  2  0
 12 14  1  1
 12 15  1  0
 16 17  2  0
 16 18  1  0
 16 19  1  0
 19 20  1  0
  3 21  1  0
  3 22  1  0
  3 23  1  0
  5 24  1  0
  7 25  1  0
  7 26  1  0
  9 27  1  0
 10 28  1  0
 10 29  1  0
 19 30  1  0
 19 31  1  0
 20 32  1  0
 20 33  1  0
M  CHG  4  14  -1  15  -1  18  -1  20   1
M  END
>  <filename_input>  (12) 
8AQL_PLG_docked.sdf

>  <pdb_id>  (12) 
8AQL_PLG

>  <pose_rank>  (12) 
11

>  <num_atoms_heavy>  (12) 
20

>  <num_torsions>  (12) 
7

>  <pose>  (12) 
[2.9957889297818707, 54.361849618910284, 6.906607316596545, 2.4249381626207693, -3.6770068797285673, -1.9426486597656973, 7.369778207216226, -0.8717555989428396, 11.699216432761801, -1.4858773169793567, 19.581465986809196, 31.153690041522648, 6.824205722969644]

>  <energy>  (12) 
-522.2732919918187

>  <inter_energy>  (12) 
-537.3730002948164

>  <intra_energy>  (12) 
13.203071144908796

>  <rmsd>  (12) 
5.24227

>  <sdf_rank>  (12) 
0

$$$$

     RDKit          3D

 33 33  0  0  0  0  0  0  0  0999 V2000
    3.8094   49.3692    9.4495 N   0  0  0  0  0  0  0  0  0  0  0  0
    2.6836   48.8796    9.9739 C   0  0  0  0  0  0  0  0  0  0  0  0
    2.4422   47.4040    9.8067 C   0  0  0  0  0  0  0  0  0  0  0  0
    1.8030   49.7671   10.6443 C   0  0  0  0  0  0  0  0  0  0  0  0
    0.6476   49.2349   11.1822 O   0  0  0  0  0  0  0  0  0  0  0  0
    2.0950   51.1058   10.7686 C   0  0  0  0  0  0  0  0  0  0  0  0
    1.2174   52.1289   11.4711 C   0  0  0  0  0  0  0  0  0  0  0  0
    3.2570   51.5775   10.2186 C   0  0  0  0  0  0  0  0  0  0  0  0
    4.0880   50.6758    9.5578 C   0  0  0  0  0  0  0  0  0  0  0  0
    3.6517   53.0537   10.2156 C   0  0  0  0  0  0  0  0  0  0  0  0
    3.4137   53.8442    9.0955 O   0  0  0  0  0  0  0  0  0  0  0  0
    4.6680   54.5880    8.4462 P   0  0  2  0  0  0  0  0  0  0  0  0
    4.5721   54.3653    6.9238 O   0  0  0  0  0  0  0  0  0  0  0  0
    5.9095   53.9286    9.0005 O   0  0  0  0  0  0  0  0  0  0  0  0
    4.5278   56.0122    8.8079 O   0  0  0  0  0  0  0  0  0  0  0  0
   -1.4935   53.6834   12.3375 C   0  0  0  0  0  0  0  0  0  0  0  0
   -2.0468   54.4808   11.5277 O   0  0  0  0  0  0  0  0  0  0  0  0
   -1.2279   54.1062   13.4828 O   0  0  0  0  0  0  0  0  0  0  0  0
   -1.1712   52.2570   11.9241 C   0  0  0  0  0  0  0  0  0  0  0  0
   -0.1018   52.2867   10.9609 N   0  0  0  0  0  0  0  0  0  0  0  0
    2.3648   46.9306   10.7966 H   0  0  0  0  0  0  0  0  0  0  0  0
    1.5063   47.2462    9.2506 H   0  0  0  0  0  0  0  0  0  0  0  0
    3.2790   46.9562    9.2506 H   0  0  0  0  0  0  0  0  0  0  0  0
    0.0072   49.8213   11.6579 H   0  0  0  0  0  0  0  0  0  0  0  0
    1.1348   51.8307   12.5266 H   0  0  0  0  0  0  0  0  0  0  0  0
    1.7115   53.0983   11.3094 H   0  0  0  0  0  0  0  0  0  0  0  0
    5.0160   51.0536    9.1038 H   0  0  0  0  0  0  0  0  0  0  0  0
    3.1173   53.5249   11.0537 H   0  0  0  0  0  0  0  0  0  0  0  0
    4.7500   53.0171   10.2649 H   0  0  0  0  0  0  0  0  0  0  0  0
   -0.8596   51.6774   12.8056 H   0  0  0  0  0  0  0  0  0  0  0  0
   -2.0609   51.7844   11.4823 H   0  0  0  0  0  0  0  0  0  0  0  0
   -0.1431   53.1942   10.4755 H   0  0  0  0  0  0  0  0  0  0  0  0
   -0.2589   51.4692   10.3543 H   0  0  0  0  0  0  0  0  0  0  0  0
  1  2  2  0
  1  9  1  0
  2  3  1  0
  2  4  1  0
  4  5  1  0
  4  6  2  0
  6  7  1  0
  6  8  1  0
  7 20  1  0
  8  9  2  0
  8 10  1  0
 10 11  1  0
 11 12  1  0
 12 13  2  0
 12 14  1  1
 12 15  1  0
 16 17  2  0
 16 18  1  0
 16 19  1  0
 19 20  1  0
  3 21  1  0
  3 22  1  0
  3 23  1  0
  5 24  1  0
  7 25  1  0
  7 26  1  0
  9 27  1  0
 10 28  1  0
 10 29  1  0
 19 30  1  0
 19 31  1  0
 20 32  1  0
 20 33  1  0
M  CHG  4  14  -1  15  -1  18  -1  20   1
M  END
>  <filename_input>  (13) 
8AQL_PLG_docked.sdf

>  <pdb_id>  (13) 
8AQL_PLG

>  <pose_rank>  (13) 
12

>  <num_atoms_heavy>  (13) 
20

>  <num_torsions>  (13) 
7

>  <pose>  (13) 
[3.809410060223147, 49.369212707089645, 9.449483118664043, 3.526497366170802, -1.0180439992049932, 0.6923972361384964, -0.5656478621157601, -0.5179287597147623, -1.9149326412768466, 4.067589543991819, 3.1642469358296097, 0.6752576805820489, 1.1817066178428757]

>  <energy>  (13) 
-412.6174001774821

>  <inter_energy>  (13) 
-420.0487718282016

>  <intra_energy>  (13) 
3.670461472511445

>  <rmsd>  (13) 
6.11721

>  <sdf_rank>  (13) 
0

$$$$

     RDKit          3D

 33 33  0  0  0  0  0  0  0  0999 V2000
   -4.8897   57.2677    9.5887 N   0  0  0  0  0  0  0  0  0  0  0  0
   -4.1117   56.3628   10.1867 C   0  0  0  0  0  0  0  0  0  0  0  0
   -4.4452   56.0164   11.6124 C   0  0  0  0  0  0  0  0  0  0  0  0
   -3.0393   55.7951    9.4515 C   0  0  0  0  0  0  0  0  0  0  0  0
   -2.2523   54.8576   10.0914 O   0  0  0  0  0  0  0  0  0  0  0  0
   -2.8003   56.1523    8.1447 C   0  0  0  0  0  0  0  0  0  0  0  0
   -1.6818   55.5964    7.2785 C   0  0  0  0  0  0  0  0  0  0  0  0
   -3.6155   57.0844    7.5599 C   0  0  0  0  0  0  0  0  0  0  0  0
   -4.6491   57.6269    8.3199 C   0  0  0  0  0  0  0  0  0  0  0  0
   -3.4022   57.6253    6.1468 C   0  0  0  0  0  0  0  0  0  0  0  0
   -3.3615   58.9969    5.9163 O   0  0  0  0  0  0  0  0  0  0  0  0
   -3.9485   59.5223    4.5280 P   0  0  2  0  0  0  0  0  0  0  0  0
   -5.4015   59.0144    4.4439 O   0  0  0  0  0  0  0  0  0  0  0  0
   -3.1088   58.9086    3.4317 O   0  0  0  0  0  0  0  0  0  0  0  0
   -3.8789   60.9956    4.5890 O   0  0  0  0  0  0  0  0  0  0  0  0
   -0.4481   53.8636    4.9297 C   0  0  0  0  0  0  0  0  0  0  0  0
   -1.2224   53.3296    4.0852 O   0  0  0  0  0  0  0  0  0  0  0  0
    0.4458   54.6245    4.5020 O   0  0  0  0  0  0  0  0  0  0  0  0
   -0.6109   53.5876    6.4152 C   0  0  0  0  0  0  0  0  0  0  0  0
   -1.8100   54.2373    6.8760 N   0  0  0  0  0  0  0  0  0  0  0  0
   -3.8449   56.6399   12.2913 H   0  0  0  0  0  0  0  0  0  0  0  0
   -5.5143   56.2009   11.7941 H   0  0  0  0  0  0  0  0  0  0  0  0
   -4.2203   54.9551   11.7941 H   0  0  0  0  0  0  0  0  0  0  0  0
   -1.4941   54.4381    9.6126 H   0  0  0  0  0  0  0  0  0  0  0  0
   -1.6261   56.2114    6.3682 H   0  0  0  0  0  0  0  0  0  0  0  0
   -0.7799   55.6315    7.9073 H   0  0  0  0  0  0  0  0  0  0  0  0
   -5.2980   58.3852    7.8574 H   0  0  0  0  0  0  0  0  0  0  0  0
   -2.4433   57.2175    5.7943 H   0  0  0  0  0  0  0  0  0  0  0  0
   -4.3159   57.3121    5.6205 H   0  0  0  0  0  0  0  0  0  0  0  0
   -0.6890   52.5034    6.5840 H   0  0  0  0  0  0  0  0  0  0  0  0
    0.2598   53.9729    6.9659 H   0  0  0  0  0  0  0  0  0  0  0  0
   -2.1644   53.7042    7.6829 H   0  0  0  0  0  0  0  0  0  0  0  0
   -2.4414   54.2526    6.0624 H   0  0  0  0  0  0  0  0  0  0  0  0
  1  2  2  0
  1  9  1  0
  2  3  1  0
  2  4  1  0
  4  5  1  0
  4  6  2  0
  6  7  1  0
  6  8  1  0
  7 20  1  0
  8  9  2  0
  8 10  1  0
 10 11  1  0
 11 12  1  0
 12 13  2  0
 12 14  1  6
 12 15  1  0
 16 17  2  0
 16 18  1  0
 16 19  1  0
 19 20  1  0
  3 21  1  0
  3 22  1  0
  3 23  1  0
  5 24  1  0
  7 25  1  0
  7 26  1  0
  9 27  1  0
 10 28  1  0
 10 29  1  0
 19 30  1  0
 19 31  1  0
 20 32  1  0
 20 33  1  0
M  CHG  4  14  -1  15  -1  18  -1  20   1
M  END
>  <filename_input>  (14) 
8AQL_PLG_docked.sdf

>  <pdb_id>  (14) 
8AQL_PLG

>  <pose_rank>  (14) 
13

>  <num_atoms_heavy>  (14) 
20

>  <num_torsions>  (14) 
7

>  <pose>  (14) 
[-4.889747499430891, 57.267712570583036, 9.588674350622703, 0.0073549587018486825, 2.6777991945350452, 2.03835805970906, 83.37098068102122, 69.76782677907815, -61.617670117285606, 1.6137788960514043, -28.787201100187907, -31.1399130580272, -12.744148126870291]

>  <energy>  (14) 
-434.24641038415416

>  <inter_energy>  (14) 
-435.0416039031873

>  <intra_energy>  (14) 
1.1481902641931117

>  <rmsd>  (14) 
9.03522

>  <sdf_rank>  (14) 
0

$$$$

     RDKit          3D

 33 33  0  0  0  0  0  0  0  0999 V2000
   -2.4674   54.6396   10.5359 N   0  0  0  0  0  0  0  0  0  0  0  0
   -1.9938   54.1337   11.6769 C   0  0  0  0  0  0  0  0  0  0  0  0
   -2.6846   54.5556   12.9452 C   0  0  0  0  0  0  0  0  0  0  0  0
   -0.8891   53.2454   11.6207 C   0  0  0  0  0  0  0  0  0  0  0  0
   -0.4212   52.7320   12.8145 O   0  0  0  0  0  0  0  0  0  0  0  0
   -0.3138   52.8949   10.4212 C   0  0  0  0  0  0  0  0  0  0  0  0
    0.8661   51.9501   10.2621 C   0  0  0  0  0  0  0  0  0  0  0  0
   -0.8218   53.4319    9.2684 C   0  0  0  0  0  0  0  0  0  0  0  0
   -1.8987   54.3097    9.3678 C   0  0  0  0  0  0  0  0  0  0  0  0
   -0.2187   53.1880    7.8857 C   0  0  0  0  0  0  0  0  0  0  0  0
    0.1557   54.2600    7.0815 O   0  0  0  0  0  0  0  0  0  0  0  0
   -0.6933   54.5084    5.7528 P   0  0  2  0  0  0  0  0  0  0  0  0
   -1.5488   55.7656    6.0057 O   0  0  0  0  0  0  0  0  0  0  0  0
   -1.5762   53.2975    5.5587 O   0  0  0  0  0  0  0  0  0  0  0  0
    0.2922   54.7165    4.6738 O   0  0  0  0  0  0  0  0  0  0  0  0
    2.4781   49.0846   10.2256 C   0  0  0  0  0  0  0  0  0  0  0  0
    2.2708   47.8734    9.9292 O   0  0  0  0  0  0  0  0  0  0  0  0
    3.4512   49.6575    9.6910 O   0  0  0  0  0  0  0  0  0  0  0  0
    1.5644   49.8132   11.1970 C   0  0  0  0  0  0  0  0  0  0  0  0
    0.5953   50.5646   10.4429 N   0  0  0  0  0  0  0  0  0  0  0  0
   -2.1068   54.2027   13.8122 H   0  0  0  0  0  0  0  0  0  0  0  0
   -2.7578   55.6527   12.9754 H   0  0  0  0  0  0  0  0  0  0  0  0
   -3.6941   54.1197   12.9754 H   0  0  0  0  0  0  0  0  0  0  0  0
    0.3480   52.1088   12.8177 H   0  0  0  0  0  0  0  0  0  0  0  0
    1.2671   52.0831    9.2465 H   0  0  0  0  0  0  0  0  0  0  0  0
    1.5665   52.2186   11.0667 H   0  0  0  0  0  0  0  0  0  0  0  0
   -2.3012   54.7528    8.4449 H   0  0  0  0  0  0  0  0  0  0  0  0
    0.6835   52.5776    8.0382 H   0  0  0  0  0  0  0  0  0  0  0  0
   -1.0526   52.7379    7.3270 H   0  0  0  0  0  0  0  0  0  0  0  0
    1.0491   49.0836   11.8389 H   0  0  0  0  0  0  0  0  0  0  0  0
    2.1548   50.4918   11.8302 H   0  0  0  0  0  0  0  0  0  0  0  0
   -0.3097   50.4834   10.9279 H   0  0  0  0  0  0  0  0  0  0  0  0
    0.6118   50.1581    9.4966 H   0  0  0  0  0  0  0  0  0  0  0  0
  1  2  2  0
  1  9  1  0
  2  3  1  0
  2  4  1  0
  4  5  1  0
  4  6  2  0
  6  7  1  0
  6  8  1  0
  7 20  1  0
  8  9  2  0
  8 10  1  0
 10 11  1  0
 11 12  1  0
 12 13  2  0
 12 14  1  6
 12 15  1  0
 16 17  2  0
 16 18  1  0
 16 19  1  0
 19 20  1  0
  3 21  1  0
  3 22  1  0
  3 23  1  0
  5 24  1  0
  7 25  1  0
  7 26  1  0
  9 27  1  0
 10 28  1  0
 10 29  1  0
 19 30  1  0
 19 31  1  0
 20 32  1  0
 20 33  1  0
M  CHG  4  14  -1  15  -1  18  -1  20   1
M  END
>  <filename_input>  (15) 
8AQL_PLG_docked.sdf

>  <pdb_id>  (15) 
8AQL_PLG

>  <pose_rank>  (15) 
14

>  <num_atoms_heavy>  (15) 
20

>  <num_torsions>  (15) 
7

>  <pose>  (15) 
[-2.4674305908367065, 54.63955723891371, 10.535908332010717, -0.0260322987273501, 2.859994189440822, 1.17749882106818, -23.367755675513287, 70.18882815536303, 32.419738118371285, -17.699871283726026, -91.55762819067397, 19.724692288292704, 38.4133017672665]

>  <energy>  (15) 
-404.56122385076446

>  <inter_energy>  (15) 
-393.6733320651661

>  <intra_energy>  (15) 
1.8134927847520674

>  <rmsd>  (15) 
6.94579

>  <sdf_rank>  (15) 
0

$$$$

     RDKit          3D

 33 33  0  0  0  0  0  0  0  0999 V2000
   -6.4505   60.0044    8.7030 N   0  0  0  0  0  0  0  0  0  0  0  0
   -6.2837   59.0657    7.7687 C   0  0  0  0  0  0  0  0  0  0  0  0
   -6.9570   59.2991    6.4436 C   0  0  0  0  0  0  0  0  0  0  0  0
   -5.4950   57.9282    8.0800 C   0  0  0  0  0  0  0  0  0  0  0  0
   -5.3338   56.9740    7.0946 O   0  0  0  0  0  0  0  0  0  0  0  0
   -4.8992   57.7868    9.3120 C   0  0  0  0  0  0  0  0  0  0  0  0
   -4.0358   56.6092    9.7339 C   0  0  0  0  0  0  0  0  0  0  0  0
   -5.0906   58.7665   10.2494 C   0  0  0  0  0  0  0  0  0  0  0  0
   -5.8820   59.8608    9.9083 C   0  0  0  0  0  0  0  0  0  0  0  0
   -4.5538   58.6852   11.6778 C   0  0  0  0  0  0  0  0  0  0  0  0
   -4.0533   59.8203   12.3079 O   0  0  0  0  0  0  0  0  0  0  0  0
   -4.4441   60.0378   13.8402 P   0  0  2  0  0  0  0  0  0  0  0  0
   -4.6352   61.5550   14.0347 O   0  0  0  0  0  0  0  0  0  0  0  0
   -3.2822   59.5400   14.6684 O   0  0  0  0  0  0  0  0  0  0  0  0
   -5.6993   59.2897   14.0496 O   0  0  0  0  0  0  0  0  0  0  0  0
   -6.6235   54.5286   11.4315 C   0  0  0  0  0  0  0  0  0  0  0  0
   -6.4951   53.3049   11.1419 O   0  0  0  0  0  0  0  0  0  0  0  0
   -7.1677   54.8167   12.5187 O   0  0  0  0  0  0  0  0  0  0  0  0
   -6.1238   55.6068   10.4844 C   0  0  0  0  0  0  0  0  0  0  0  0
   -4.6844   55.5850   10.4796 N   0  0  0  0  0  0  0  0  0  0  0  0
   -7.9841   59.6553    6.6118 H   0  0  0  0  0  0  0  0  0  0  0  0
   -6.3953   60.0550    5.8750 H   0  0  0  0  0  0  0  0  0  0  0  0
   -6.9839   58.3578    5.8750 H   0  0  0  0  0  0  0  0  0  0  0  0
   -4.7907   56.1656    7.2725 H   0  0  0  0  0  0  0  0  0  0  0  0
   -3.6260   56.1508    8.8218 H   0  0  0  0  0  0  0  0  0  0  0  0
   -3.2785   57.0297   10.4118 H   0  0  0  0  0  0  0  0  0  0  0  0
   -6.0482   60.6435   10.6632 H   0  0  0  0  0  0  0  0  0  0  0  0
   -5.3786   58.3143   12.3041 H   0  0  0  0  0  0  0  0  0  0  0  0
   -3.6642   58.0468   11.5727 H   0  0  0  0  0  0  0  0  0  0  0  0
   -6.5004   55.4118    9.4695 H   0  0  0  0  0  0  0  0  0  0  0  0
   -6.4828   56.5925   10.8153 H   0  0  0  0  0  0  0  0  0  0  0  0
   -4.3866   54.6788   10.0911 H   0  0  0  0  0  0  0  0  0  0  0  0
   -4.4063   55.7433   11.4586 H   0  0  0  0  0  0  0  0  0  0  0  0
  1  2  2  0
  1  9  1  0
  2  3  1  0
  2  4  1  0
  4  5  1  0
  4  6  2  0
  6  7  1  0
  6  8  1  0
  7 20  1  0
  8  9  2  0
  8 10  1  0
 10 11  1  0
 11 12  1  0
 12 13  2  0
 12 14  1  1
 12 15  1  0
 16 17  2  0
 16 18  1  0
 16 19  1  0
 19 20  1  0
  3 21  1  0
  3 22  1  0
  3 23  1  0
  5 24  1  0
  7 25  1  0
  7 26  1  0
  9 27  1  0
 10 28  1  0
 10 29  1  0
 19 30  1  0
 19 31  1  0
 20 32  1  0
 20 33  1  0
M  CHG  4  14  -1  15  -1  18  -1  20   1
M  END
>  <filename_input>  (16) 
8AQL_PLG_docked.sdf

>  <pdb_id>  (16) 
8AQL_PLG

>  <pose_rank>  (16) 
15

>  <num_atoms_heavy>  (16) 
20

>  <num_torsions>  (16) 
7

>  <pose>  (16) 
[-6.45050935719632, 60.004418303770265, 8.703007986076042, -0.7171138050386012, -0.13037089787905345, 1.5223018302489735, -7.511535576225706, -2.5557221040949627, -0.3222080265304976, 1.6285527797853119, -5.227845809233669, 5.242656794530339, 2.6203981587998255]

>  <energy>  (16) 
-97.77568574847601

>  <inter_energy>  (16) 
-115.85208201026623

>  <intra_energy>  (16) 
16.1490489983532

>  <rmsd>  (16) 
10.875

>  <sdf_rank>  (16) 
0

$$$$

     RDKit          3D

 33 33  0  0  0  0  0  0  0  0999 V2000
   -4.9334   57.7073    8.2248 N   0  0  0  0  0  0  0  0  0  0  0  0
   -4.1236   57.8747    7.1768 C   0  0  0  0  0  0  0  0  0  0  0  0
   -4.5036   58.9439    6.1889 C   0  0  0  0  0  0  0  0  0  0  0  0
   -2.9760   57.0481    7.0648 C   0  0  0  0  0  0  0  0  0  0  0  0
   -2.1517   57.2446    5.9741 O   0  0  0  0  0  0  0  0  0  0  0  0
   -2.6850   56.0963    8.0145 C   0  0  0  0  0  0  0  0  0  0  0  0
   -1.4800   55.1705    7.9816 C   0  0  0  0  0  0  0  0  0  0  0  0
   -3.5361   55.9482    9.0770 C   0  0  0  0  0  0  0  0  0  0  0  0
   -4.6583   56.7707    9.1434 C   0  0  0  0  0  0  0  0  0  0  0  0
   -3.3688   54.8730   10.1497 C   0  0  0  0  0  0  0  0  0  0  0  0
   -3.9267   55.0451   11.4127 O   0  0  0  0  0  0  0  0  0  0  0  0
   -2.9277   55.0575   12.6576 P   0  0  2  0  0  0  0  0  0  0  0  0
   -2.1430   56.3821   12.5791 O   0  0  0  0  0  0  0  0  0  0  0  0
   -1.9962   53.8796   12.4893 O   0  0  0  0  0  0  0  0  0  0  0  0
   -3.7783   54.9877   13.8620 O   0  0  0  0  0  0  0  0  0  0  0  0
   -0.5411   53.6608    4.8295 C   0  0  0  0  0  0  0  0  0  0  0  0
   -1.3751   52.7760    4.4839 O   0  0  0  0  0  0  0  0  0  0  0  0
    0.0234   54.3146    3.9267 O   0  0  0  0  0  0  0  0  0  0  0  0
   -0.2458   53.9178    6.2978 C   0  0  0  0  0  0  0  0  0  0  0  0
   -1.4891   54.1563    6.9831 N   0  0  0  0  0  0  0  0  0  0  0  0
   -4.8243   59.8462    6.7303 H   0  0  0  0  0  0  0  0  0  0  0  0
   -3.6359   59.1844    5.5570 H   0  0  0  0  0  0  0  0  0  0  0  0
   -5.3285   58.5829    5.5570 H   0  0  0  0  0  0  0  0  0  0  0  0
   -1.3410   56.6881    5.8597 H   0  0  0  0  0  0  0  0  0  0  0  0
   -0.5856   55.7905    7.8210 H   0  0  0  0  0  0  0  0  0  0  0  0
   -1.4960   54.6352    8.9424 H   0  0  0  0  0  0  0  0  0  0  0  0
   -5.3508   56.6459    9.9888 H   0  0  0  0  0  0  0  0  0  0  0  0
   -3.7982   53.9475    9.7385 H   0  0  0  0  0  0  0  0  0  0  0  0
   -2.2876   54.8897   10.3516 H   0  0  0  0  0  0  0  0  0  0  0  0
    0.2549   53.0407    6.7338 H   0  0  0  0  0  0  0  0  0  0  0  0
    0.4129   54.7928    6.4004 H   0  0  0  0  0  0  0  0  0  0  0  0
   -1.7714   53.2749    7.4350 H   0  0  0  0  0  0  0  0  0  0  0  0
   -2.1391   54.4933    6.2586 H   0  0  0  0  0  0  0  0  0  0  0  0
  1  2  2  0
  1  9  1  0
  2  3  1  0
  2  4  1  0
  4  5  1  0
  4  6  2  0
  6  7  1  0
  6  8  1  0
  7 20  1  0
  8  9  2  0
  8 10  1  0
 10 11  1  0
 11 12  1  0
 12 13  2  0
 12 14  1  6
 12 15  1  0
 16 17  2  0
 16 18  1  0
 16 19  1  0
 19 20  1  0
  3 21  1  0
  3 22  1  0
  3 23  1  0
  5 24  1  0
  7 25  1  0
  7 26  1  0
  9 27  1  0
 10 28  1  0
 10 29  1  0
 19 30  1  0
 19 31  1  0
 20 32  1  0
 20 33  1  0
M  CHG  4  14  -1  15  -1  18  -1  20   1
M  END
>  <filename_input>  (17) 
8AQL_PLG_docked.sdf

>  <pdb_id>  (17) 
8AQL_PLG

>  <pose_rank>  (17) 
16

>  <num_atoms_heavy>  (17) 
20

>  <num_torsions>  (17) 
7

>  <pose>  (17) 
[-4.933394551619313, 57.70733586668767, 8.2248151595467, -0.34173526101264096, -1.214083864199427, 1.4506817355628296, -0.7597434590084347, 5.890971089874183, 6.552606571328982, 1.9181735113641905, 7.602089180078664, 7.02476954806488, 0.08390638510784762]

>  <energy>  (17) 
-419.46094501583985

>  <inter_energy>  (17) 
-407.7849150063951

>  <intra_energy>  (17) 
1.0183033955668757

>  <rmsd>  (17) 
7.06244

>  <sdf_rank>  (17) 
0

$$$$

     RDKit          3D

 33 33  0  0  0  0  0  0  0  0999 V2000
   -2.6904   58.5697    6.2719 N   0  0  0  0  0  0  0  0  0  0  0  0
   -3.4219   58.9468    7.3229 C   0  0  0  0  0  0  0  0  0  0  0  0
   -3.9407   60.3591    7.3177 C   0  0  0  0  0  0  0  0  0  0  0  0
   -3.6597   58.0071    8.3589 C   0  0  0  0  0  0  0  0  0  0  0  0
   -4.4236   58.4204    9.4328 O   0  0  0  0  0  0  0  0  0  0  0  0
   -3.1618   56.7265    8.2907 C   0  0  0  0  0  0  0  0  0  0  0  0
   -3.3676   55.6526    9.3465 C   0  0  0  0  0  0  0  0  0  0  0  0
   -2.4138   56.3707    7.2001 C   0  0  0  0  0  0  0  0  0  0  0  0
   -2.1930   57.3265    6.2111 C   0  0  0  0  0  0  0  0  0  0  0  0
   -1.7367   55.0094    7.0479 C   0  0  0  0  0  0  0  0  0  0  0  0
   -0.4969   54.9051    6.4250 O   0  0  0  0  0  0  0  0  0  0  0  0
   -0.1633   53.5296    5.6869 P   0  0  2  0  0  0  0  0  0  0  0  0
   -1.0169   52.4441    6.3721 O   0  0  0  0  0  0  0  0  0  0  0  0
    1.3081   53.2587    5.8994 O   0  0  0  0  0  0  0  0  0  0  0  0
   -0.5437   53.7240    4.2739 O   0  0  0  0  0  0  0  0  0  0  0  0
   -3.3458   56.0436   13.0557 C   0  0  0  0  0  0  0  0  0  0  0  0
   -3.4555   57.2015   13.5507 O   0  0  0  0  0  0  0  0  0  0  0  0
   -2.7207   55.1849   13.7137 O   0  0  0  0  0  0  0  0  0  0  0  0
   -3.9627   55.7147   11.7065 C   0  0  0  0  0  0  0  0  0  0  0  0
   -2.9963   55.9951   10.6771 N   0  0  0  0  0  0  0  0  0  0  0  0
   -4.0683   60.7066    8.3536 H   0  0  0  0  0  0  0  0  0  0  0  0
   -3.2234   61.0113    6.7979 H   0  0  0  0  0  0  0  0  0  0  0  0
   -4.9096   60.3919    6.7979 H   0  0  0  0  0  0  0  0  0  0  0  0
   -4.6122   57.7944   10.1762 H   0  0  0  0  0  0  0  0  0  0  0  0
   -4.4359   55.3907    9.3539 H   0  0  0  0  0  0  0  0  0  0  0  0
   -2.6987   54.8279    9.0592 H   0  0  0  0  0  0  0  0  0  0  0  0
   -1.5820   57.0481    5.3398 H   0  0  0  0  0  0  0  0  0  0  0  0
   -1.6154   54.6022    8.0625 H   0  0  0  0  0  0  0  0  0  0  0  0
   -2.4067   54.4745    6.3587 H   0  0  0  0  0  0  0  0  0  0  0  0
   -4.2388   54.6503   11.6751 H   0  0  0  0  0  0  0  0  0  0  0  0
   -4.8658   56.3226   11.5487 H   0  0  0  0  0  0  0  0  0  0  0  0
   -2.1365   55.4760   10.9054 H   0  0  0  0  0  0  0  0  0  0  0  0
   -2.8900   57.0196   10.6751 H   0  0  0  0  0  0  0  0  0  0  0  0
  1  2  2  0
  1  9  1  0
  2  3  1  0
  2  4  1  0
  4  5  1  0
  4  6  2  0
  6  7  1  0
  6  8  1  0
  7 20  1  0
  8  9  2  0
  8 10  1  0
 10 11  1  0
 11 12  1  0
 12 13  2  0
 12 14  1  6
 12 15  1  0
 16 17  2  0
 16 18  1  0
 16 19  1  0
 19 20  1  0
  3 21  1  0
  3 22  1  0
  3 23  1  0
  5 24  1  0
  7 25  1  0
  7 26  1  0
  9 27  1  0
 10 28  1  0
 10 29  1  0
 19 30  1  0
 19 31  1  0
 20 32  1  0
 20 33  1  0
M  CHG  4  14  -1  15  -1  18  -1  20   1
M  END
>  <filename_input>  (18) 
8AQL_PLG_docked.sdf

>  <pdb_id>  (18) 
8AQL_PLG

>  <pose_rank>  (18) 
17

>  <num_atoms_heavy>  (18) 
20

>  <num_torsions>  (18) 
7

>  <pose>  (18) 
[-2.690354597201288, 58.56968292158345, 6.271920169953663, 0.3833344778710009, 1.9729898828879389, 0.07942584747780806, -0.47623422166212787, -0.5162658814573722, -0.4929685126392718, -1.8692508651832915, -3.933479179181232, 0.1828224494941374, -1.600186165605899]

>  <energy>  (18) 
-364.80248670160415

>  <inter_energy>  (18) 
-361.68060797554665

>  <intra_energy>  (18) 
5.407650105424629

>  <rmsd>  (18) 
7.99363

>  <sdf_rank>  (18) 
0

$$$$

     RDKit          3D

 33 33  0  0  0  0  0  0  0  0999 V2000
    1.3181   53.9143    5.6957 N   0  0  0  0  0  0  0  0  0  0  0  0
    0.0470   53.5139    5.7739 C   0  0  0  0  0  0  0  0  0  0  0  0
   -0.8350   53.8188    4.5937 C   0  0  0  0  0  0  0  0  0  0  0  0
   -0.3825   52.8375    6.9447 C   0  0  0  0  0  0  0  0  0  0  0  0
   -1.7009   52.4292    6.9988 O   0  0  0  0  0  0  0  0  0  0  0  0
    0.4844   52.5828    7.9820 C   0  0  0  0  0  0  0  0  0  0  0  0
    0.1175   51.8631    9.2695 C   0  0  0  0  0  0  0  0  0  0  0  0
    1.7817   53.0075    7.8720 C   0  0  0  0  0  0  0  0  0  0  0  0
    2.1601   53.6791    6.7117 C   0  0  0  0  0  0  0  0  0  0  0  0
    2.8160   52.8607    8.9871 C   0  0  0  0  0  0  0  0  0  0  0  0
    4.1680   53.0578    8.7242 O   0  0  0  0  0  0  0  0  0  0  0  0
    5.0118   53.8728    9.8068 P   0  0  2  0  0  0  0  0  0  0  0  0
    6.4773   53.4193    9.6549 O   0  0  0  0  0  0  0  0  0  0  0  0
    4.4766   53.4878   11.1665 O   0  0  0  0  0  0  0  0  0  0  0  0
    4.8352   55.2990    9.4699 O   0  0  0  0  0  0  0  0  0  0  0  0
    2.6031   49.5334   10.7898 C   0  0  0  0  0  0  0  0  0  0  0  0
    3.2803   48.9494    9.8963 O   0  0  0  0  0  0  0  0  0  0  0  0
    2.4838   48.9650   11.8960 O   0  0  0  0  0  0  0  0  0  0  0  0
    1.9638   50.8853   10.5195 C   0  0  0  0  0  0  0  0  0  0  0  0
    0.8823   50.7054    9.5866 N   0  0  0  0  0  0  0  0  0  0  0  0
   -1.8188   54.1590    4.9493 H   0  0  0  0  0  0  0  0  0  0  0  0
   -0.3720   54.6091    3.9845 H   0  0  0  0  0  0  0  0  0  0  0  0
   -0.9589   52.9114    3.9845 H   0  0  0  0  0  0  0  0  0  0  0  0
   -2.0395   51.9540    7.7985 H   0  0  0  0  0  0  0  0  0  0  0  0
    0.2333   52.5780   10.0974 H   0  0  0  0  0  0  0  0  0  0  0  0
   -0.9109   51.5024    9.1202 H   0  0  0  0  0  0  0  0  0  0  0  0
    3.1980   54.0328    6.6254 H   0  0  0  0  0  0  0  0  0  0  0  0
    2.5388   53.5806    9.7713 H   0  0  0  0  0  0  0  0  0  0  0  0
    2.7645   51.7901    9.2341 H   0  0  0  0  0  0  0  0  0  0  0  0
    1.5762   51.3060   11.4591 H   0  0  0  0  0  0  0  0  0  0  0  0
    2.7100   51.5760   10.1000 H   0  0  0  0  0  0  0  0  0  0  0  0
    0.2398   50.0051    9.9837 H   0  0  0  0  0  0  0  0  0  0  0  0
    1.3293   50.4237    8.7025 H   0  0  0  0  0  0  0  0  0  0  0  0
  1  2  2  0
  1  9  1  0
  2  3  1  0
  2  4  1  0
  4  5  1  0
  4  6  2  0
  6  7  1  0
  6  8  1  0
  7 20  1  0
  8  9  2  0
  8 10  1  0
 10 11  1  0
 11 12  1  0
 12 13  2  0
 12 14  1  1
 12 15  1  0
 16 17  2  0
 16 18  1  0
 16 19  1  0
 19 20  1  0
  3 21  1  0
  3 22  1  0
  3 23  1  0
  5 24  1  0
  7 25  1  0
  7 26  1  0
  9 27  1  0
 10 28  1  0
 10 29  1  0
 19 30  1  0
 19 31  1  0
 20 32  1  0
 20 33  1  0
M  CHG  4  14  -1  15  -1  18  -1  20   1
M  END
>  <filename_input>  (19) 
8AQL_PLG_docked.sdf

>  <pdb_id>  (19) 
8AQL_PLG

>  <pose_rank>  (19) 
18

>  <num_atoms_heavy>  (19) 
20

>  <num_torsions>  (19) 
7

>  <pose>  (19) 
[1.3180665893680785, 53.91427389673012, 5.695690295212816, 2.7245990668346565, -3.9096162487464956, -0.9987453120907833, 8.90087793087692, -1.0956722791559246, 12.094525850744326, -2.2113624515735046, 20.34453985838327, 30.374625178994656, 7.8238027089007245]

>  <energy>  (19) 
-444.79550049783415

>  <inter_energy>  (19) 
-498.8007635576386

>  <intra_energy>  (19) 
61.69660081229054

>  <rmsd>  (19) 
5.46614

>  <sdf_rank>  (19) 
0

$$$$

     RDKit          3D

 33 33  0  0  0  0  0  0  0  0999 V2000
   -1.2125   55.3918    5.5125 N   0  0  0  0  0  0  0  0  0  0  0  0
   -0.4494   54.3051    5.3756 C   0  0  0  0  0  0  0  0  0  0  0  0
    0.0628   54.0047    3.9931 C   0  0  0  0  0  0  0  0  0  0  0  0
   -0.1746   53.5176    6.5232 C   0  0  0  0  0  0  0  0  0  0  0  0
    0.6214   52.4013    6.3559 O   0  0  0  0  0  0  0  0  0  0  0  0
   -0.6689   53.8602    7.7605 C   0  0  0  0  0  0  0  0  0  0  0  0
   -0.4248   53.0829    9.0437 C   0  0  0  0  0  0  0  0  0  0  0  0
   -1.4497   54.9801    7.8678 C   0  0  0  0  0  0  0  0  0  0  0  0
   -1.7062   55.7187    6.7150 C   0  0  0  0  0  0  0  0  0  0  0  0
   -2.1254   55.4173    9.1666 C   0  0  0  0  0  0  0  0  0  0  0  0
   -3.0639   56.4446    9.1612 O   0  0  0  0  0  0  0  0  0  0  0  0
   -4.0546   56.5360   10.4095 P   0  0  2  0  0  0  0  0  0  0  0  0
   -3.6645   55.3916   11.3658 O   0  0  0  0  0  0  0  0  0  0  0  0
   -5.4546   56.3293    9.8797 O   0  0  0  0  0  0  0  0  0  0  0  0
   -3.8270   57.8640   11.0125 O   0  0  0  0  0  0  0  0  0  0  0  0
    2.2060   50.8391   10.3081 C   0  0  0  0  0  0  0  0  0  0  0  0
    3.1455   51.6507   10.0703 O   0  0  0  0  0  0  0  0  0  0  0  0
    2.5114   49.6860   10.6797 O   0  0  0  0  0  0  0  0  0  0  0  0
    0.7554   51.2633   10.1498 C   0  0  0  0  0  0  0  0  0  0  0  0
    0.6566   52.1578    9.0263 N   0  0  0  0  0  0  0  0  0  0  0  0
    1.0095   53.4493    4.0655 H   0  0  0  0  0  0  0  0  0  0  0  0
   -0.6778   53.3978    3.4516 H   0  0  0  0  0  0  0  0  0  0  0  0
    0.2311   54.9472    3.4516 H   0  0  0  0  0  0  0  0  0  0  0  0
    0.8364   51.8258    7.1322 H   0  0  0  0  0  0  0  0  0  0  0  0
   -0.2295   53.8113    9.8444 H   0  0  0  0  0  0  0  0  0  0  0  0
   -1.3285   52.4737    9.1930 H   0  0  0  0  0  0  0  0  0  0  0  0
   -2.3434   56.6117    6.7952 H   0  0  0  0  0  0  0  0  0  0  0  0
   -2.6318   54.5295    9.5733 H   0  0  0  0  0  0  0  0  0  0  0  0
   -1.2943   55.8434    9.7477 H   0  0  0  0  0  0  0  0  0  0  0  0
    0.1276   50.3773    9.9739 H   0  0  0  0  0  0  0  0  0  0  0  0
    0.4108   51.7694   11.0637 H   0  0  0  0  0  0  0  0  0  0  0  0
    0.5635   51.5835    8.1764 H   0  0  0  0  0  0  0  0  0  0  0  0
    1.5092   52.7348    9.0618 H   0  0  0  0  0  0  0  0  0  0  0  0
  1  2  2  0
  1  9  1  0
  2  3  1  0
  2  4  1  0
  4  5  1  0
  4  6  2  0
  6  7  1  0
  6  8  1  0
  7 20  1  0
  8  9  2  0
  8 10  1  0
 10 11  1  0
 11 12  1  0
 12 13  2  0
 12 14  1  6
 12 15  1  0
 16 17  2  0
 16 18  1  0
 16 19  1  0
 19 20  1  0
  3 21  1  0
  3 22  1  0
  3 23  1  0
  5 24  1  0
  7 25  1  0
  7 26  1  0
  9 27  1  0
 10 28  1  0
 10 29  1  0
 19 30  1  0
 19 31  1  0
 20 32  1  0
 20 33  1  0
M  CHG  4  14  -1  15  -1  18  -1  20   1
M  END
>  <filename_input>  (20) 
8AQL_PLG_docked.sdf

>  <pdb_id>  (20) 
8AQL_PLG

>  <pose_rank>  (20) 
19

>  <num_atoms_heavy>  (20) 
20

>  <num_torsions>  (20) 
7

>  <pose>  (20) 
[-1.212533066913627, 55.391822987278466, 5.512467011080338, 3.1409856013140036, 1.0130853170348102, -2.5121478122554026, 0.7662101060223288, 0.5127761043464261, 0.03682113270152253, -2.8058458010713085, 1.8956498400554096, -0.6485692263946878, -1.1432212002231499]

>  <energy>  (20) 
-302.5290581328751

>  <inter_energy>  (20) 
-308.7714799333626

>  <intra_energy>  (20) 
20.084832921462493

>  <rmsd>  (20) 
6.94796

>  <sdf_rank>  (20) 
0

$$$$

     RDKit          3D

 33 33  0  0  0  0  0  0  0  0999 V2000
   -3.0640   58.5880   10.2272 N   0  0  0  0  0  0  0  0  0  0  0  0
   -3.1633   58.5032    8.8987 C   0  0  0  0  0  0  0  0  0  0  0  0
   -3.6612   59.7250    8.1755 C   0  0  0  0  0  0  0  0  0  0  0  0
   -2.7983   57.2874    8.2653 C   0  0  0  0  0  0  0  0  0  0  0  0
   -2.9054   57.2269    6.8896 O   0  0  0  0  0  0  0  0  0  0  0  0
   -2.3395   56.2126    8.9913 C   0  0  0  0  0  0  0  0  0  0  0  0
   -1.9221   54.8753    8.4017 C   0  0  0  0  0  0  0  0  0  0  0  0
   -2.2504   56.3307   10.3527 C   0  0  0  0  0  0  0  0  0  0  0  0
   -2.6305   57.5368   10.9368 C   0  0  0  0  0  0  0  0  0  0  0  0
   -1.8377   55.1843   11.2747 C   0  0  0  0  0  0  0  0  0  0  0  0
   -2.5049   54.9722   12.4772 O   0  0  0  0  0  0  0  0  0  0  0  0
   -1.6147   54.6223   13.7551 P   0  0  2  0  0  0  0  0  0  0  0  0
   -1.3349   53.1076   13.6953 O   0  0  0  0  0  0  0  0  0  0  0  0
   -2.4395   54.9606   14.9753 O   0  0  0  0  0  0  0  0  0  0  0  0
   -0.3798   55.4198   13.6208 O   0  0  0  0  0  0  0  0  0  0  0  0
   -0.7897   54.1482    5.1494 C   0  0  0  0  0  0  0  0  0  0  0  0
   -1.6307   55.0052    4.7544 O   0  0  0  0  0  0  0  0  0  0  0  0
   -0.0118   53.6606    4.3020 O   0  0  0  0  0  0  0  0  0  0  0  0
   -0.7306   53.7352    6.6107 C   0  0  0  0  0  0  0  0  0  0  0  0
   -0.8844   54.9099    7.4283 N   0  0  0  0  0  0  0  0  0  0  0  0
   -3.9707   60.4844    8.9086 H   0  0  0  0  0  0  0  0  0  0  0  0
   -2.8568   60.1309    7.5445 H   0  0  0  0  0  0  0  0  0  0  0  0
   -4.5202   59.4529    7.5445 H   0  0  0  0  0  0  0  0  0  0  0  0
   -2.6603   56.3962    6.4101 H   0  0  0  0  0  0  0  0  0  0  0  0
   -1.5832   54.2354    9.2298 H   0  0  0  0  0  0  0  0  0  0  0  0
   -2.8092   54.5001    7.8704 H   0  0  0  0  0  0  0  0  0  0  0  0
   -2.5722   57.6308   12.0313 H   0  0  0  0  0  0  0  0  0  0  0  0
   -1.9381   54.2577   10.6905 H   0  0  0  0  0  0  0  0  0  0  0  0
   -0.8284   55.4776   11.5992 H   0  0  0  0  0  0  0  0  0  0  0  0
   -1.5415   53.0243    6.8276 H   0  0  0  0  0  0  0  0  0  0  0  0
    0.2343   53.2526    6.8253 H   0  0  0  0  0  0  0  0  0  0  0  0
   -1.0703   55.7055    6.8010 H   0  0  0  0  0  0  0  0  0  0  0  0
   -0.0090   54.9842    7.9659 H   0  0  0  0  0  0  0  0  0  0  0  0
  1  2  2  0
  1  9  1  0
  2  3  1  0
  2  4  1  0
  4  5  1  0
  4  6  2  0
  6  7  1  0
  6  8  1  0
  7 20  1  0
  8  9  2  0
  8 10  1  0
 10 11  1  0
 11 12  1  0
 12 13  2  0
 12 14  1  1
 12 15  1  0
 16 17  2  0
 16 18  1  0
 16 19  1  0
 19 20  1  0
  3 21  1  0
  3 22  1  0
  3 23  1  0
  5 24  1  0
  7 25  1  0
  7 26  1  0
  9 27  1  0
 10 28  1  0
 10 29  1  0
 19 30  1  0
 19 31  1  0
 20 32  1  0
 20 33  1  0
M  CHG  4  14  -1  15  -1  18  -1  20   1
M  END
>  <filename_input>  (21) 
8AQL_PLG_docked.sdf

>  <pdb_id>  (21) 
8AQL_PLG

>  <pose_rank>  (21) 
20

>  <num_atoms_heavy>  (21) 
20

>  <num_torsions>  (21) 
7

>  <pose>  (21) 
[-3.0639981950644346, 58.58804582206906, 10.22723134048012, 0.4052659643013055, 2.0063315171249645, -4.689258975513689, 1.473776797810643, -24.510555331630737, -13.931721439379647, 2.124141986873672, 2.4559689323092715, -5.856092977341312, -2.609856225484081]

>  <energy>  (21) 
-365.7483938234638

>  <inter_energy>  (21) 
-362.7269927082909

>  <intra_energy>  (21) 
4.4293286827882525

>  <rmsd>  (21) 
6.45438

>  <sdf_rank>  (21) 
0

$$$$

     RDKit          3D

 33 33  0  0  0  0  0  0  0  0999 V2000
   -0.9511   55.2758    4.9431 N   0  0  0  0  0  0  0  0  0  0  0  0
   -0.7120   54.4658    5.9769 C   0  0  0  0  0  0  0  0  0  0  0  0
   -0.0273   53.1609    5.6731 C   0  0  0  0  0  0  0  0  0  0  0  0
   -1.1113   54.8811    7.2733 C   0  0  0  0  0  0  0  0  0  0  0  0
   -0.8480   54.0273    8.3266 O   0  0  0  0  0  0  0  0  0  0  0  0
   -1.7240   56.0957    7.4779 C   0  0  0  0  0  0  0  0  0  0  0  0
   -2.1817   56.6262    8.8268 C   0  0  0  0  0  0  0  0  0  0  0  0
   -1.9566   56.9034    6.3967 C   0  0  0  0  0  0  0  0  0  0  0  0
   -1.5606   56.4533    5.1394 C   0  0  0  0  0  0  0  0  0  0  0  0
   -2.7030   58.2340    6.4815 C   0  0  0  0  0  0  0  0  0  0  0  0
   -3.8619   58.4401    5.7395 O   0  0  0  0  0  0  0  0  0  0  0  0
   -4.8596   59.5794    6.2439 P   0  0  2  0  0  0  0  0  0  0  0  0
   -6.1777   59.3851    5.4685 O   0  0  0  0  0  0  0  0  0  0  0  0
   -4.2295   60.9072    5.8926 O   0  0  0  0  0  0  0  0  0  0  0  0
   -5.0311   59.3569    7.6931 O   0  0  0  0  0  0  0  0  0  0  0  0
   -4.2599   56.3077   11.5261 C   0  0  0  0  0  0  0  0  0  0  0  0
   -3.9678   55.0790   11.5814 O   0  0  0  0  0  0  0  0  0  0  0  0
   -4.6577   56.8603   12.5737 O   0  0  0  0  0  0  0  0  0  0  0  0
   -4.1226   57.0802   10.2247 C   0  0  0  0  0  0  0  0  0  0  0  0
   -3.4821   56.2342    9.2519 N   0  0  0  0  0  0  0  0  0  0  0  0
    0.2368   52.6575    6.6148 H   0  0  0  0  0  0  0  0  0  0  0  0
   -0.7045   52.5183    5.0912 H   0  0  0  0  0  0  0  0  0  0  0  0
    0.8862   53.3529    5.0912 H   0  0  0  0  0  0  0  0  0  0  0  0
   -1.1110   54.2806    9.2468 H   0  0  0  0  0  0  0  0  0  0  0  0
   -1.4632   56.2797    9.5842 H   0  0  0  0  0  0  0  0  0  0  0  0
   -2.2289   57.7190    8.7106 H   0  0  0  0  0  0  0  0  0  0  0  0
   -1.7574   57.0939    4.2671 H   0  0  0  0  0  0  0  0  0  0  0  0
   -2.9751   58.3765    7.5378 H   0  0  0  0  0  0  0  0  0  0  0  0
   -1.9928   58.9459    6.0357 H   0  0  0  0  0  0  0  0  0  0  0  0
   -5.1185   57.3739    9.8616 H   0  0  0  0  0  0  0  0  0  0  0  0
   -3.5206   57.9862   10.3881 H   0  0  0  0  0  0  0  0  0  0  0  0
   -4.0871   56.2018    8.4189 H   0  0  0  0  0  0  0  0  0  0  0  0
   -3.3529   55.3272    9.7227 H   0  0  0  0  0  0  0  0  0  0  0  0
  1  2  2  0
  1  9  1  0
  2  3  1  0
  2  4  1  0
  4  5  1  0
  4  6  2  0
  6  7  1  0
  6  8  1  0
  7 20  1  0
  8  9  2  0
  8 10  1  0
 10 11  1  0
 11 12  1  0
 12 13  2  0
 12 14  1  1
 12 15  1  0
 16 17  2  0
 16 18  1  0
 16 19  1  0
 19 20  1  0
  3 21  1  0
  3 22  1  0
  3 23  1  0
  5 24  1  0
  7 25  1  0
  7 26  1  0
  9 27  1  0
 10 28  1  0
 10 29  1  0
 19 30  1  0
 19 31  1  0
 20 32  1  0
 20 33  1  0
M  CHG  4  14  -1  15  -1  18  -1  20   1
M  END
>  <filename_input>  (22) 
8AQL_PLG_docked.sdf

>  <pdb_id>  (22) 
8AQL_PLG

>  <pose_rank>  (22) 
21

>  <num_atoms_heavy>  (22) 
20

>  <num_torsions>  (22) 
7

>  <pose>  (22) 
[-0.9510758520374687, 55.27579785629947, 4.943080731758078, -2.635673537246932, 0.06377940786692585, 0.9693323958936579, -1.0403474359381986, 0.7306122354153, 0.7487846357657201, 2.720866277881117, 2.7546841315393724, -0.6902860253709678, 2.205776061571299]

>  <energy>  (22) 
-243.9168653875454

>  <inter_energy>  (22) 
-245.20467129556926

>  <intra_energy>  (22) 
1.3202422016880977

>  <rmsd>  (22) 
9.06638

>  <sdf_rank>  (22) 
0

$$$$

     RDKit          3D

 33 33  0  0  0  0  0  0  0  0999 V2000
   -2.9879   57.1430    9.4215 N   0  0  0  0  0  0  0  0  0  0  0  0
   -3.4799   58.3101    9.0000 C   0  0  0  0  0  0  0  0  0  0  0  0
   -4.0093   59.2443   10.0538 C   0  0  0  0  0  0  0  0  0  0  0  0
   -3.4710   58.5898    7.6091 C   0  0  0  0  0  0  0  0  0  0  0  0
   -3.9810   59.8062    7.1992 O   0  0  0  0  0  0  0  0  0  0  0  0
   -2.9594   57.6907    6.7023 C   0  0  0  0  0  0  0  0  0  0  0  0
   -2.9033   57.9040    5.1984 C   0  0  0  0  0  0  0  0  0  0  0  0
   -2.4633   56.5015    7.1662 C   0  0  0  0  0  0  0  0  0  0  0  0
   -2.5020   56.2603    8.5375 C   0  0  0  0  0  0  0  0  0  0  0  0
   -1.9472   55.3887    6.2550 C   0  0  0  0  0  0  0  0  0  0  0  0
   -0.6697   54.8671    6.4343 O   0  0  0  0  0  0  0  0  0  0  0  0
   -0.2345   53.6581    5.4874 P   0  0  2  0  0  0  0  0  0  0  0  0
   -0.4945   52.3621    6.2806 O   0  0  0  0  0  0  0  0  0  0  0  0
    1.2419   53.8221    5.2104 O   0  0  0  0  0  0  0  0  0  0  0  0
   -1.0885   53.7541    4.2873 O   0  0  0  0  0  0  0  0  0  0  0  0
   -6.4290   57.6646    5.1926 C   0  0  0  0  0  0  0  0  0  0  0  0
   -6.6810   58.8790    4.9484 O   0  0  0  0  0  0  0  0  0  0  0  0
   -7.2847   57.0065    5.8216 O   0  0  0  0  0  0  0  0  0  0  0  0
   -5.1275   57.0332    4.7271 C   0  0  0  0  0  0  0  0  0  0  0  0
   -4.1520   58.0747    4.5372 N   0  0  0  0  0  0  0  0  0  0  0  0
   -3.7802   58.8400   11.0508 H   0  0  0  0  0  0  0  0  0  0  0  0
   -3.5361   60.2309    9.9406 H   0  0  0  0  0  0  0  0  0  0  0  0
   -5.0988   59.3451    9.9406 H   0  0  0  0  0  0  0  0  0  0  0  0
   -3.9927   60.0391    6.2371 H   0  0  0  0  0  0  0  0  0  0  0  0
   -2.2990   58.8036    5.0101 H   0  0  0  0  0  0  0  0  0  0  0  0
   -2.4788   56.9763    4.7870 H   0  0  0  0  0  0  0  0  0  0  0  0
   -2.1160   55.3009    8.9124 H   0  0  0  0  0  0  0  0  0  0  0  0
   -2.6486   54.5474    6.3561 H   0  0  0  0  0  0  0  0  0  0  0  0
   -1.8784   55.8825    5.2745 H   0  0  0  0  0  0  0  0  0  0  0  0
   -4.7680   56.3232    5.4864 H   0  0  0  0  0  0  0  0  0  0  0  0
   -5.2892   56.4940    3.7821 H   0  0  0  0  0  0  0  0  0  0  0  0
   -4.5659   58.9560    4.8731 H   0  0  0  0  0  0  0  0  0  0  0  0
   -3.9316   58.0613    3.5311 H   0  0  0  0  0  0  0  0  0  0  0  0
  1  2  2  0
  1  9  1  0
  2  3  1  0
  2  4  1  0
  4  5  1  0
  4  6  2  0
  6  7  1  0
  6  8  1  0
  7 20  1  0
  8  9  2  0
  8 10  1  0
 10 11  1  0
 11 12  1  0
 12 13  2  0
 12 14  1  6
 12 15  1  0
 16 17  2  0
 16 18  1  0
 16 19  1  0
 19 20  1  0
  3 21  1  0
  3 22  1  0
  3 23  1  0
  5 24  1  0
  7 25  1  0
  7 26  1  0
  9 27  1  0
 10 28  1  0
 10 29  1  0
 19 30  1  0
 19 31  1  0
 20 32  1  0
 20 33  1  0
M  CHG  4  14  -1  15  -1  18  -1  20   1
M  END
>  <filename_input>  (23) 
8AQL_PLG_docked.sdf

>  <pdb_id>  (23) 
8AQL_PLG

>  <pose_rank>  (23) 
22

>  <num_atoms_heavy>  (23) 
20

>  <num_torsions>  (23) 
7

>  <pose>  (23) 
[-2.987869331876195, 57.1429645302035, 9.421516675917642, -3.5804381442999453, 2.2413628703296524, -2.0844223747196686, 5.681709984125603, 2.5121053941294234, -1.3315306268691045, -3.031493339988846, -11.784976166558291, -6.647272498793793, -2.8421362883742542]

>  <energy>  (23) 
-344.85140981009016

>  <inter_energy>  (23) 
-334.3355534917129

>  <intra_energy>  (23) 
4.243554553397201

>  <rmsd>  (23) 
7.78103

>  <sdf_rank>  (23) 
0

$$$$

     RDKit          3D

 33 33  0  0  0  0  0  0  0  0999 V2000
   -3.0956   60.0864    8.1744 N   0  0  0  0  0  0  0  0  0  0  0  0
   -3.2148   60.1830    6.8483 C   0  0  0  0  0  0  0  0  0  0  0  0
   -3.5600   61.5386    6.2944 C   0  0  0  0  0  0  0  0  0  0  0  0
   -3.0110   59.0209    6.0604 C   0  0  0  0  0  0  0  0  0  0  0  0
   -3.1352   59.1484    4.6907 O   0  0  0  0  0  0  0  0  0  0  0  0
   -2.6861   57.8145    6.6363 C   0  0  0  0  0  0  0  0  0  0  0  0
   -2.4453   56.5209    5.8754 C   0  0  0  0  0  0  0  0  0  0  0  0
   -2.5725   57.7478    7.9993 C   0  0  0  0  0  0  0  0  0  0  0  0
   -2.7929   58.9083    8.7375 C   0  0  0  0  0  0  0  0  0  0  0  0
   -2.3009   56.4518    8.7618 C   0  0  0  0  0  0  0  0  0  0  0  0
   -3.3552   55.6984    9.2686 O   0  0  0  0  0  0  0  0  0  0  0  0
   -4.0957   56.2584   10.5671 P   0  0  2  0  0  0  0  0  0  0  0  0
   -3.0172   56.9487   11.4255 O   0  0  0  0  0  0  0  0  0  0  0  0
   -4.6709   55.0670   11.2971 O   0  0  0  0  0  0  0  0  0  0  0  0
   -5.1090   57.2134   10.0770 O   0  0  0  0  0  0  0  0  0  0  0  0
    0.2023   53.9005    6.0542 C   0  0  0  0  0  0  0  0  0  0  0  0
    1.0643   54.6239    6.6299 O   0  0  0  0  0  0  0  0  0  0  0  0
    0.5017   52.7101    5.8211 O   0  0  0  0  0  0  0  0  0  0  0  0
   -1.1535   54.4678    5.6676 C   0  0  0  0  0  0  0  0  0  0  0  0
   -1.2784   55.7872    6.2296 N   0  0  0  0  0  0  0  0  0  0  0  0
   -3.7383   62.2390    7.1237 H   0  0  0  0  0  0  0  0  0  0  0  0
   -2.7266   61.9056    5.6773 H   0  0  0  0  0  0  0  0  0  0  0  0
   -4.4674   61.4624    5.6773 H   0  0  0  0  0  0  0  0  0  0  0  0
   -3.0007   58.3609    4.1060 H   0  0  0  0  0  0  0  0  0  0  0  0
   -3.3147   55.8679    6.0417 H   0  0  0  0  0  0  0  0  0  0  0  0
   -2.2954   56.8212    4.8279 H   0  0  0  0  0  0  0  0  0  0  0  0
   -2.7150   58.8555    9.8335 H   0  0  0  0  0  0  0  0  0  0  0  0
   -1.7433   55.7945    8.0784 H   0  0  0  0  0  0  0  0  0  0  0  0
   -1.7864   56.8008    9.6693 H   0  0  0  0  0  0  0  0  0  0  0  0
   -1.2330   54.5230    4.5718 H   0  0  0  0  0  0  0  0  0  0  0  0
   -1.9547   53.8192    6.0515 H   0  0  0  0  0  0  0  0  0  0  0  0
   -0.4604   56.3350    5.9265 H   0  0  0  0  0  0  0  0  0  0  0  0
   -1.3448   55.6445    7.2475 H   0  0  0  0  0  0  0  0  0  0  0  0
  1  2  2  0
  1  9  1  0
  2  3  1  0
  2  4  1  0
  4  5  1  0
  4  6  2  0
  6  7  1  0
  6  8  1  0
  7 20  1  0
  8  9  2  0
  8 10  1  0
 10 11  1  0
 11 12  1  0
 12 13  2  0
 12 14  1  1
 12 15  1  0
 16 17  2  0
 16 18  1  0
 16 19  1  0
 19 20  1  0
  3 21  1  0
  3 22  1  0
  3 23  1  0
  5 24  1  0
  7 25  1  0
  7 26  1  0
  9 27  1  0
 10 28  1  0
 10 29  1  0
 19 30  1  0
 19 31  1  0
 20 32  1  0
 20 33  1  0
M  CHG  4  14  -1  15  -1  18  -1  20   1
M  END
>  <filename_input>  (24) 
8AQL_PLG_docked.sdf

>  <pdb_id>  (24) 
8AQL_PLG

>  <pose_rank>  (24) 
23

>  <num_atoms_heavy>  (24) 
20

>  <num_torsions>  (24) 
7

>  <pose>  (24) 
[-3.0955854597379133, 60.086421225091755, 8.174420900985993, 0.006700933439819206, 2.503918071163597, -4.605026358087673, 2.7777755018852437, -24.959588507109462, -13.070898363870521, 2.7089462296011635, 3.231198078128208, -4.753008285697019, -1.7641711245302942]

>  <energy>  (24) 
-256.46285853877515

>  <inter_energy>  (24) 
-292.5892746740199

>  <intra_energy>  (24) 
42.187156312535535

>  <rmsd>  (24) 
7.68621

>  <sdf_rank>  (24) 
0

$$$$

     RDKit          3D

 33 33  0  0  0  0  0  0  0  0999 V2000
   -2.5330   58.1558    4.2225 N   0  0  0  0  0  0  0  0  0  0  0  0
   -3.1251   58.9246    5.1393 C   0  0  0  0  0  0  0  0  0  0  0  0
   -3.5826   60.2860    4.6911 C   0  0  0  0  0  0  0  0  0  0  0  0
   -3.2827   58.4164    6.4545 C   0  0  0  0  0  0  0  0  0  0  0  0
   -3.9028   59.2294    7.3830 O   0  0  0  0  0  0  0  0  0  0  0  0
   -2.8488   57.1548    6.7903 C   0  0  0  0  0  0  0  0  0  0  0  0
   -2.9780   56.5253    8.1677 C   0  0  0  0  0  0  0  0  0  0  0  0
   -2.2441   56.3913    5.8277 C   0  0  0  0  0  0  0  0  0  0  0  0
   -2.0972   56.9319    4.5523 C   0  0  0  0  0  0  0  0  0  0  0  0
   -1.6450   55.0116    6.0967 C   0  0  0  0  0  0  0  0  0  0  0  0
   -0.2769   54.7988    5.9596 O   0  0  0  0  0  0  0  0  0  0  0  0
    0.2457   53.2962    6.0904 P   0  0  2  0  0  0  0  0  0  0  0  0
   -0.9586   52.3832    5.7867 O   0  0  0  0  0  0  0  0  0  0  0  0
    0.7047   53.1098    7.5180 O   0  0  0  0  0  0  0  0  0  0  0  0
    1.3187   53.1504    5.0871 O   0  0  0  0  0  0  0  0  0  0  0  0
   -4.8726   57.0541   10.3518 C   0  0  0  0  0  0  0  0  0  0  0  0
   -4.7243   56.2515   11.3171 O   0  0  0  0  0  0  0  0  0  0  0  0
   -4.6737   58.2686   10.5673 O   0  0  0  0  0  0  0  0  0  0  0  0
   -5.2743   56.5480    8.9764 C   0  0  0  0  0  0  0  0  0  0  0  0
   -4.1763   55.8005    8.4216 N   0  0  0  0  0  0  0  0  0  0  0  0
   -3.7925   60.9106    5.5719 H   0  0  0  0  0  0  0  0  0  0  0  0
   -2.7935   60.7575    4.0869 H   0  0  0  0  0  0  0  0  0  0  0  0
   -4.4962   60.1853    4.0869 H   0  0  0  0  0  0  0  0  0  0  0  0
   -4.0318   58.9114    8.3116 H   0  0  0  0  0  0  0  0  0  0  0  0
   -2.1335   55.8329    8.2999 H   0  0  0  0  0  0  0  0  0  0  0  0
   -2.9905   57.3680    8.8745 H   0  0  0  0  0  0  0  0  0  0  0  0
   -1.6006   56.3262    3.7800 H   0  0  0  0  0  0  0  0  0  0  0  0
   -1.9021   54.7529    7.1345 H   0  0  0  0  0  0  0  0  0  0  0  0
   -2.0741   54.3938    5.2941 H   0  0  0  0  0  0  0  0  0  0  0  0
   -6.1576   55.8983    9.0643 H   0  0  0  0  0  0  0  0  0  0  0  0
   -5.5192   57.3969    8.3211 H   0  0  0  0  0  0  0  0  0  0  0  0
   -4.4925   55.3963    7.5286 H   0  0  0  0  0  0  0  0  0  0  0  0
   -3.9278   55.1068    9.1413 H   0  0  0  0  0  0  0  0  0  0  0  0
  1  2  2  0
  1  9  1  0
  2  3  1  0
  2  4  1  0
  4  5  1  0
  4  6  2  0
  6  7  1  0
  6  8  1  0
  7 20  1  0
  8  9  2  0
  8 10  1  0
 10 11  1  0
 11 12  1  0
 12 13  2  0
 12 14  1  1
 12 15  1  0
 16 17  2  0
 16 18  1  0
 16 19  1  0
 19 20  1  0
  3 21  1  0
  3 22  1  0
  3 23  1  0
  5 24  1  0
  7 25  1  0
  7 26  1  0
  9 27  1  0
 10 28  1  0
 10 29  1  0
 19 30  1  0
 19 31  1  0
 20 32  1  0
 20 33  1  0
M  CHG  4  14  -1  15  -1  18  -1  20   1
M  END
>  <filename_input>  (25) 
8AQL_PLG_docked.sdf

>  <pdb_id>  (25) 
8AQL_PLG

>  <pose_rank>  (25) 
24

>  <num_atoms_heavy>  (25) 
20

>  <num_torsions>  (25) 
7

>  <pose>  (25) 
[-2.533013063597165, 58.155788910131676, 4.222537727083757, -0.44721243698116986, -4.139175361458175, 0.6726693078807996, 8.306846783036578, 1.907212812639806, -4.671058650979509, 1.6389344162312325, 2.85114479254249, -0.19010728960766463, -0.7714560102032507]

>  <energy>  (25) 
-341.7434313759325

>  <inter_energy>  (25) 
-315.54695327271634

>  <intra_energy>  (25) 
3.2353029518575553

>  <rmsd>  (25) 
7.73209

>  <sdf_rank>  (25) 
0

$$$$

     RDKit          3D

 33 33  0  0  0  0  0  0  0  0999 V2000
    5.2870   55.0080    9.4140 N   0  0  0  0  0  0  0  0  0  0  0  0
    4.7540   55.4350    8.2670 C   0  0  0  0  0  0  0  0  0  0  0  0
    5.3800   56.6500    7.6380 C   0  0  0  0  0  0  0  0  0  0  0  0
    3.6510   54.7270    7.7240 C   0  0  0  0  0  0  0  0  0  0  0  0
    3.1210   55.1860    6.5340 O   0  0  0  0  0  0  0  0  0  0  0  0
    3.1370   53.6150    8.3500 C   0  0  0  0  0  0  0  0  0  0  0  0
    1.9640   52.7920    7.8430 C   0  0  0  0  0  0  0  0  0  0  0  0
    3.7050   53.2030    9.5260 C   0  0  0  0  0  0  0  0  0  0  0  0
    4.7780   53.9330   10.0320 C   0  0  0  0  0  0  0  0  0  0  0  0
    3.1730   52.0370   10.3580 C   0  0  0  0  0  0  0  0  0  0  0  0
    3.4930   50.7260   10.0190 O   0  0  0  0  0  0  0  0  0  0  0  0
    2.5800   49.5690   10.6320 P   0  0  2  0  0  0  0  0  0  0  0  0
    1.1810   49.7340   10.0060 O   0  0  0  0  0  0  0  0  0  0  0  0
    2.5220   49.7950   12.1250 O   0  0  0  0  0  0  0  0  0  0  0  0
    3.2170   48.2970   10.2380 O   0  0  0  0  0  0  0  0  0  0  0  0
   -0.3200   53.4860    5.0300 C   0  0  0  0  0  0  0  0  0  0  0  0
   -1.3130   53.1120    4.3430 O   0  0  0  0  0  0  0  0  0  0  0  0
    0.2380   54.5580    4.7130 O   0  0  0  0  0  0  0  0  0  0  0  0
    0.1680   52.6550    6.2050 C   0  0  0  0  0  0  0  0  0  0  0  0
    1.0180   53.4750    7.0280 N   0  0  0  0  0  0  0  0  0  0  0  0
    5.7311   57.3315    8.4268 H   0  0  0  0  0  0  0  0  0  0  0  0
    6.2317   56.3420    7.0137 H   0  0  0  0  0  0  0  0  0  0  0  0
    4.6349   57.1648    7.0137 H   0  0  0  0  0  0  0  0  0  0  0  0
    2.3508   54.7195    6.1225 H   0  0  0  0  0  0  0  0  0  0  0  0
    2.3708   51.9561    7.2550 H   0  0  0  0  0  0  0  0  0  0  0  0
    1.4093   52.4879    8.7429 H   0  0  0  0  0  0  0  0  0  0  0  0
    5.2286   53.6124   10.9829 H   0  0  0  0  0  0  0  0  0  0  0  0
    3.5314   52.1935   11.3861 H   0  0  0  0  0  0  0  0  0  0  0  0
    2.0880   52.0812   10.1822 H   0  0  0  0  0  0  0  0  0  0  0  0
   -0.6927   52.3057    6.7943 H   0  0  0  0  0  0  0  0  0  0  0  0
    0.7287   51.7819    5.8398 H   0  0  0  0  0  0  0  0  0  0  0  0
    0.4116   54.0288    7.6497 H   0  0  0  0  0  0  0  0  0  0  0  0
    1.5791   54.0332    6.3688 H   0  0  0  0  0  0  0  0  0  0  0  0
  1  2  2  0
  1  9  1  0
  2  3  1  0
  2  4  1  0
  4  5  1  0
  4  6  2  0
  6  7  1  0
  6  8  1  0
  7 20  1  0
  8  9  2  0
  8 10  1  0
 10 11  1  0
 11 12  1  0
 12 13  2  0
 12 14  1  1
 12 15  1  0
 16 17  2  0
 16 18  1  0
 16 19  1  0
 19 20  1  0
  3 21  1  0
  3 22  1  0
  3 23  1  0
  5 24  1  0
  7 25  1  0
  7 26  1  0
  9 27  1  0
 10 28  1  0
 10 29  1  0
 19 30  1  0
 19 31  1  0
 20 32  1  0
 20 33  1  0
M  CHG  4  14  -1  15  -1  18  -1  20   1
M  END
>  <filename_input>  (26) 
8AQL_PLG_docked.sdf

>  <pdb_id>  (26) 
8AQL_PLG

>  <pose_rank>  (26) 
25

>  <num_atoms_heavy>  (26) 
20

>  <num_torsions>  (26) 
7

>  <pose>  (26) 
[5.287, 55.008, 9.414, 1e-06, 1e-06, 1e-06, 0.0, 0.0, 0.0, 0.0, 0.0, 0.0, 0.0]

>  <energy>  (26) 
-966.6092374351243

>  <inter_energy>  (26) 
-989.8738616519585

>  <intra_energy>  (26) 
18.236553303827925

>  <rmsd>  (26) 
0.0

>  <sdf_rank>  (26) 
0

$$$$
