
     RDKit          3D

 20 19  0  0  0  0  0  0  0  0999 V2000
   19.0649   18.8258  -26.0968 N   0  0  0  0  0  0  0  0  0  0  0  0
   17.1975   17.9758  -27.3306 C   0  0  0  0  0  0  0  0  0  0  0  0
   16.9350   17.1401  -28.1331 O   0  0  0  0  0  0  0  0  0  0  0  0
   18.9880   16.4043  -26.3197 C   0  0  0  0  0  0  0  0  0  0  0  0
   20.1215   14.5529  -27.1973 C   0  0  0  0  0  0  0  0  0  0  0  0
   20.4307   13.9703  -28.5729 C   0  0  0  0  0  0  0  0  0  0  0  0
   16.3161   19.1988  -27.1143 C   0  0  0  0  0  0  0  0  0  0  0  0
   18.4641   17.8151  -26.5252 C   0  0  0  0  0  0  0  0  0  0  0  0
   19.7475   15.8929  -27.3567 O   0  0  0  0  0  0  0  0  0  0  0  0
   20.2430   18.6460  -25.3830 O   0  0  0  0  0  0  0  0  0  0  0  0
   18.7514   15.7465  -25.3531 O   0  0  0  0  0  0  0  0  0  0  0  0
   19.2983   13.9905  -26.7325 H   0  0  0  0  0  0  0  0  0  0  0  0
   21.0084   14.4833  -26.5503 H   0  0  0  0  0  0  0  0  0  0  0  0
   20.9434   13.0043  -28.4551 H   0  0  0  0  0  0  0  0  0  0  0  0
   19.4925   13.8223  -29.1277 H   0  0  0  0  0  0  0  0  0  0  0  0
   21.0792   14.6643  -29.1277 H   0  0  0  0  0  0  0  0  0  0  0  0
   16.1900   19.3738  -26.0356 H   0  0  0  0  0  0  0  0  0  0  0  0
   16.7894   20.0782  -27.5755 H   0  0  0  0  0  0  0  0  0  0  0  0
   15.3322   19.0279  -27.5755 H   0  0  0  0  0  0  0  0  0  0  0  0
   20.7353   19.4310  -25.0345 H   0  0  0  0  0  0  0  0  0  0  0  0
  1  8  2  3
  1 10  1  0
  2  3  2  0
  2  7  1  0
  2  8  1  0
  4  8  1  0
  4  9  1  0
  4 11  2  0
  5  6  1  0
  5  9  1  0
  5 12  1  0
  5 13  1  0
  6 14  1  0
  6 15  1  0
  6 16  1  0
  7 17  1  0
  7 18  1  0
  7 19  1  0
 10 20  1  0
M  END
>  <filename_input>  (1) 
8AUH_L9I_docked.sdf

>  <pdb_id>  (1) 
8AUH_L9I

>  <pose_rank>  (1) 
0

>  <num_atoms_heavy>  (1) 
11

>  <num_torsions>  (1) 
4

>  <pose>  (1) 
[19.064874928939865, 18.825773537049034, -26.096828660112042, 6.021280901451213, -0.9669669315160974, 1.1255328284507027, -0.3568172363735086, -25.180755590315826, -0.2667309392759072, -0.0326475830685986]

>  <energy>  (1) 
-487.00168762243464

>  <inter_energy>  (1) 
-480.29953563129607

>  <intra_energy>  (1) 
2.1248053788878036

>  <rmsd>  (1) 
0.436374

>  <sdf_rank>  (1) 
0

$$$$

     RDKit          3D

 20 19  0  0  0  0  0  0  0  0999 V2000
   19.9776   17.1455  -26.3392 N   0  0  0  0  0  0  0  0  0  0  0  0
   19.4884   15.1230  -27.5234 C   0  0  0  0  0  0  0  0  0  0  0  0
   19.6762   15.0485  -28.6940 O   0  0  0  0  0  0  0  0  0  0  0  0
   17.6738   16.9160  -27.0872 C   0  0  0  0  0  0  0  0  0  0  0  0
   16.4720   18.9203  -27.2323 C   0  0  0  0  0  0  0  0  0  0  0  0
   16.3649   20.1788  -28.0878 C   0  0  0  0  0  0  0  0  0  0  0  0
   19.5851   13.9105  -26.6069 C   0  0  0  0  0  0  0  0  0  0  0  0
   19.1185   16.4683  -26.9469 C   0  0  0  0  0  0  0  0  0  0  0  0
   17.4813   18.1075  -27.7630 O   0  0  0  0  0  0  0  0  0  0  0  0
   19.5988   18.3665  -25.7956 O   0  0  0  0  0  0  0  0  0  0  0  0
   16.7496   16.3166  -26.6293 O   0  0  0  0  0  0  0  0  0  0  0  0
   16.7229   19.1953  -26.1972 H   0  0  0  0  0  0  0  0  0  0  0  0
   15.5135   18.3806  -27.2337 H   0  0  0  0  0  0  0  0  0  0  0  0
   16.2898   21.0608  -27.4347 H   0  0  0  0  0  0  0  0  0  0  0  0
   17.2587   20.2677  -28.7228 H   0  0  0  0  0  0  0  0  0  0  0  0
   15.4689   20.1154  -28.7228 H   0  0  0  0  0  0  0  0  0  0  0  0
   19.5588   14.2406  -25.5580 H   0  0  0  0  0  0  0  0  0  0  0  0
   18.7379   13.2361  -26.8005 H   0  0  0  0  0  0  0  0  0  0  0  0
   20.5285   13.3789  -26.8005 H   0  0  0  0  0  0  0  0  0  0  0  0
   20.2616   18.9194  -25.3106 H   0  0  0  0  0  0  0  0  0  0  0  0
  1  8  2  3
  1 10  1  0
  2  3  2  0
  2  7  1  0
  2  8  1  0
  4  8  1  0
  4  9  1  0
  4 11  2  0
  5  6  1  0
  5  9  1  0
  5 12  1  0
  5 13  1  0
  6 14  1  0
  6 15  1  0
  6 16  1  0
  7 17  1  0
  7 18  1  0
  7 19  1  0
 10 20  1  0
M  END
>  <filename_input>  (2) 
8AUH_L9I_docked.sdf

>  <pdb_id>  (2) 
8AUH_L9I

>  <pose_rank>  (2) 
1

>  <num_atoms_heavy>  (2) 
11

>  <num_torsions>  (2) 
4

>  <pose>  (2) 
[19.977551712054215, 17.145496949636733, -26.339233159106755, 2.023041152632599, 2.38416664351438, 1.7480918363740425, 1.4925999141088786, 8.953319479360502, 0.3125713278680804, 6.657914277520334]

>  <energy>  (2) 
-427.40548263848973

>  <inter_energy>  (2) 
-435.60237238804507

>  <intra_energy>  (2) 
7.835269313612206

>  <rmsd>  (2) 
4.02314

>  <sdf_rank>  (2) 
0

$$$$

     RDKit          3D

 20 19  0  0  0  0  0  0  0  0999 V2000
   17.7647   15.2571  -26.6346 N   0  0  0  0  0  0  0  0  0  0  0  0
   20.1216   15.0643  -27.0082 C   0  0  0  0  0  0  0  0  0  0  0  0
   20.5264   14.2583  -26.2351 O   0  0  0  0  0  0  0  0  0  0  0  0
   19.0276   17.3184  -26.3601 C   0  0  0  0  0  0  0  0  0  0  0  0
   17.6920   19.2415  -26.3449 C   0  0  0  0  0  0  0  0  0  0  0  0
   16.5513   19.8748  -27.1355 C   0  0  0  0  0  0  0  0  0  0  0  0
   20.8307   15.3543  -28.3245 C   0  0  0  0  0  0  0  0  0  0  0  0
   18.8750   15.8343  -26.6450 C   0  0  0  0  0  0  0  0  0  0  0  0
   18.1861   18.1527  -27.0738 O   0  0  0  0  0  0  0  0  0  0  0  0
   16.6324   15.9996  -26.3239 O   0  0  0  0  0  0  0  0  0  0  0  0
   19.8312   17.7654  -25.6001 O   0  0  0  0  0  0  0  0  0  0  0  0
   18.4927   19.9801  -26.1924 H   0  0  0  0  0  0  0  0  0  0  0  0
   17.3286   18.9043  -25.3630 H   0  0  0  0  0  0  0  0  0  0  0  0
   15.8073   20.2879  -26.4385 H   0  0  0  0  0  0  0  0  0  0  0  0
   16.9480   20.6818  -27.7690 H   0  0  0  0  0  0  0  0  0  0  0  0
   16.0761   19.1114  -27.7690 H   0  0  0  0  0  0  0  0  0  0  0  0
   21.8310   15.7634  -28.1197 H   0  0  0  0  0  0  0  0  0  0  0  0
   20.9265   14.4232  -28.9022 H   0  0  0  0  0  0  0  0  0  0  0  0
   20.2466   16.0858  -28.9022 H   0  0  0  0  0  0  0  0  0  0  0  0
   15.7434   15.5641  -26.3095 H   0  0  0  0  0  0  0  0  0  0  0  0
  1  8  2  3
  1 10  1  0
  2  3  2  0
  2  7  1  0
  2  8  1  0
  4  8  1  0
  4  9  1  0
  4 11  2  0
  5  6  1  0
  5  9  1  0
  5 12  1  0
  5 13  1  0
  6 14  1  0
  6 15  1  0
  6 16  1  0
  7 17  1  0
  7 18  1  0
  7 19  1  0
 10 20  1  0
M  END
>  <filename_input>  (3) 
8AUH_L9I_docked.sdf

>  <pdb_id>  (3) 
8AUH_L9I

>  <pose_rank>  (3) 
2

>  <num_atoms_heavy>  (3) 
11

>  <num_torsions>  (3) 
4

>  <pose>  (3) 
[17.764673110608943, 15.257139429815018, -26.634561318025117, 0.7584789291608355, 0.32904489442505513, -3.557972532543231, 2.050161541865818, 0.7295688563765604, -1.0300416779865686, 0.5865425142458772]

>  <energy>  (3) 
-464.86063871237377

>  <inter_energy>  (3) 
-451.3281490264136

>  <intra_energy>  (3) 
13.399892539300948

>  <rmsd>  (3) 
4.35155

>  <sdf_rank>  (3) 
0

$$$$

     RDKit          3D

 20 19  0  0  0  0  0  0  0  0999 V2000
   19.8670   17.4265  -25.9443 N   0  0  0  0  0  0  0  0  0  0  0  0
   18.3765   16.1521  -27.3177 C   0  0  0  0  0  0  0  0  0  0  0  0
   17.5639   16.2283  -28.1809 O   0  0  0  0  0  0  0  0  0  0  0  0
   18.0049   18.6767  -26.8872 C   0  0  0  0  0  0  0  0  0  0  0  0
   15.7172   18.8593  -27.3514 C   0  0  0  0  0  0  0  0  0  0  0  0
   14.9213   17.5741  -27.5566 C   0  0  0  0  0  0  0  0  0  0  0  0
   18.9292   14.8161  -26.8388 C   0  0  0  0  0  0  0  0  0  0  0  0
   18.8467   17.4314  -26.6688 C   0  0  0  0  0  0  0  0  0  0  0  0
   16.7127   18.6172  -26.3969 O   0  0  0  0  0  0  0  0  0  0  0  0
   20.2579   18.6140  -25.3386 O   0  0  0  0  0  0  0  0  0  0  0  0
   18.3953   19.6443  -27.4656 O   0  0  0  0  0  0  0  0  0  0  0  0
   16.1801   19.1648  -28.3012 H   0  0  0  0  0  0  0  0  0  0  0  0
   15.0515   19.6640  -27.0061 H   0  0  0  0  0  0  0  0  0  0  0  0
   14.6566   17.1466  -26.5783 H   0  0  0  0  0  0  0  0  0  0  0  0
   14.0032   17.7974  -28.1198 H   0  0  0  0  0  0  0  0  0  0  0  0
   15.5304   16.8517  -28.1198 H   0  0  0  0  0  0  0  0  0  0  0  0
   18.9376   14.7957  -25.7391 H   0  0  0  0  0  0  0  0  0  0  0  0
   18.2946   14.0005  -27.2158 H   0  0  0  0  0  0  0  0  0  0  0  0
   19.9545   14.6871  -27.2158 H   0  0  0  0  0  0  0  0  0  0  0  0
   21.0618   18.6340  -24.7612 H   0  0  0  0  0  0  0  0  0  0  0  0
  1  8  2  3
  1 10  1  0
  2  3  2  0
  2  7  1  0
  2  8  1  0
  4  8  1  0
  4  9  1  0
  4 11  2  0
  5  6  1  0
  5  9  1  0
  5 12  1  0
  5 13  1  0
  6 14  1  0
  6 15  1  0
  6 16  1  0
  7 17  1  0
  7 18  1  0
  7 19  1  0
 10 20  1  0
M  END
>  <filename_input>  (4) 
8AUH_L9I_docked.sdf

>  <pdb_id>  (4) 
8AUH_L9I

>  <pose_rank>  (4) 
3

>  <num_atoms_heavy>  (4) 
11

>  <num_torsions>  (4) 
4

>  <pose>  (4) 
[19.866967431873164, 17.4265298925103, -25.944341890426852, -2.1628751955182643, -1.3335456034425723, -1.7361329627570958, 0.3782931076944377, -12.976514811938463, 0.6246536242687035, -0.7990784228109181]

>  <energy>  (4) 
-420.68345862078587

>  <inter_energy>  (4) 
-442.6955196677462

>  <intra_energy>  (4) 
19.450770770610426

>  <rmsd>  (4) 
3.92355

>  <sdf_rank>  (4) 
0

$$$$

     RDKit          3D

 20 19  0  0  0  0  0  0  0  0999 V2000
   19.3154   14.4357  -27.1566 N   0  0  0  0  0  0  0  0  0  0  0  0
   18.3643   15.7335  -28.9294 C   0  0  0  0  0  0  0  0  0  0  0  0
   18.9676   16.4218  -29.6867 O   0  0  0  0  0  0  0  0  0  0  0  0
   18.8989   16.7718  -26.6199 C   0  0  0  0  0  0  0  0  0  0  0  0
   17.8380   18.8541  -26.4744 C   0  0  0  0  0  0  0  0  0  0  0  0
   16.5281   19.4981  -26.9177 C   0  0  0  0  0  0  0  0  0  0  0  0
   17.0575   15.0533  -29.3155 C   0  0  0  0  0  0  0  0  0  0  0  0
   18.9142   15.5592  -27.5344 C   0  0  0  0  0  0  0  0  0  0  0  0
   17.7021   17.4634  -26.5658 O   0  0  0  0  0  0  0  0  0  0  0  0
   19.7896   14.3013  -25.8578 O   0  0  0  0  0  0  0  0  0  0  0  0
   19.8486   17.1441  -26.0014 O   0  0  0  0  0  0  0  0  0  0  0  0
   18.6568   19.1907  -27.1273 H   0  0  0  0  0  0  0  0  0  0  0  0
   18.0687   19.1432  -25.4384 H   0  0  0  0  0  0  0  0  0  0  0  0
   15.9428   19.7859  -26.0320 H   0  0  0  0  0  0  0  0  0  0  0  0
   16.7448   20.3924  -27.5205 H   0  0  0  0  0  0  0  0  0  0  0  0
   15.9522   18.7804  -27.5205 H   0  0  0  0  0  0  0  0  0  0  0  0
   16.5096   14.7681  -28.4053 H   0  0  0  0  0  0  0  0  0  0  0  0
   16.4448   15.7469  -29.9101 H   0  0  0  0  0  0  0  0  0  0  0  0
   17.2742   14.1535  -29.9101 H   0  0  0  0  0  0  0  0  0  0  0  0
   20.1121   13.4220  -25.5371 H   0  0  0  0  0  0  0  0  0  0  0  0
  1  8  2  3
  1 10  1  0
  2  3  2  0
  2  7  1  0
  2  8  1  0
  4  8  1  0
  4  9  1  0
  4 11  2  0
  5  6  1  0
  5  9  1  0
  5 12  1  0
  5 13  1  0
  6 14  1  0
  6 15  1  0
  6 16  1  0
  7 17  1  0
  7 18  1  0
  7 19  1  0
 10 20  1  0
M  END
>  <filename_input>  (5) 
8AUH_L9I_docked.sdf

>  <pdb_id>  (5) 
8AUH_L9I

>  <pose_rank>  (5) 
4

>  <num_atoms_heavy>  (5) 
11

>  <num_torsions>  (5) 
4

>  <pose>  (5) 
[19.315388475225625, 14.435653403343121, -27.15664050797981, 2.0991166861771817, -0.3444418578131369, 2.550003784964405, 1.2910213885815713, -0.6568880993631886, 0.29346709392572246, 0.012776649724624153]

>  <energy>  (5) 
-435.1088432672059

>  <inter_energy>  (5) 
-438.37298835615604

>  <intra_energy>  (5) 
9.170975492907163

>  <rmsd>  (5) 
3.906

>  <sdf_rank>  (5) 
0

$$$$

     RDKit          3D

 20 19  0  0  0  0  0  0  0  0999 V2000
   18.2099   15.8854  -29.2700 N   0  0  0  0  0  0  0  0  0  0  0  0
   18.8261   14.1932  -27.6925 C   0  0  0  0  0  0  0  0  0  0  0  0
   17.9356   13.4163  -27.5719 O   0  0  0  0  0  0  0  0  0  0  0  0
   18.5493   16.6691  -26.9919 C   0  0  0  0  0  0  0  0  0  0  0  0
   17.4650   18.7072  -26.6008 C   0  0  0  0  0  0  0  0  0  0  0  0
   16.4247   19.3499  -27.5129 C   0  0  0  0  0  0  0  0  0  0  0  0
   20.2787   13.8077  -27.4456 C   0  0  0  0  0  0  0  0  0  0  0  0
   18.4846   15.6116  -28.0803 C   0  0  0  0  0  0  0  0  0  0  0  0
   17.3578   17.3159  -26.7167 O   0  0  0  0  0  0  0  0  0  0  0  0
   17.9275   17.2049  -29.6004 O   0  0  0  0  0  0  0  0  0  0  0  0
   19.5521   16.9645  -26.4173 O   0  0  0  0  0  0  0  0  0  0  0  0
   18.4727   19.0283  -26.9031 H   0  0  0  0  0  0  0  0  0  0  0  0
   17.2930   19.0132  -25.5583 H   0  0  0  0  0  0  0  0  0  0  0  0
   15.6472   19.8303  -26.9009 H   0  0  0  0  0  0  0  0  0  0  0  0
   16.9106   20.1055  -28.1478 H   0  0  0  0  0  0  0  0  0  0  0  0
   15.9664   18.5774  -28.1478 H   0  0  0  0  0  0  0  0  0  0  0  0
   20.4658   13.7580  -26.3628 H   0  0  0  0  0  0  0  0  0  0  0  0
   20.4793   12.8252  -27.8978 H   0  0  0  0  0  0  0  0  0  0  0  0
   20.9400   14.5614  -27.8978 H   0  0  0  0  0  0  0  0  0  0  0  0
   17.7075   17.4449  -30.5353 H   0  0  0  0  0  0  0  0  0  0  0  0
  1  8  2  3
  1 10  1  0
  2  3  2  0
  2  7  1  0
  2  8  1  0
  4  8  1  0
  4  9  1  0
  4 11  2  0
  5  6  1  0
  5  9  1  0
  5 12  1  0
  5 13  1  0
  6 14  1  0
  6 15  1  0
  6 16  1  0
  7 17  1  0
  7 18  1  0
  7 19  1  0
 10 20  1  0
M  END
>  <filename_input>  (6) 
8AUH_L9I_docked.sdf

>  <pdb_id>  (6) 
8AUH_L9I

>  <pose_rank>  (6) 
5

>  <num_atoms_heavy>  (6) 
11

>  <num_torsions>  (6) 
4

>  <pose>  (6) 
[18.209886696896394, 15.885409872637439, -29.270041776916297, -1.6950796157213428, -0.8005698285529431, 1.1823852487545883, 1.9262725524075364, -3.566850048314863, 0.4351121892561004, -0.5426289423373274]

>  <energy>  (6) 
-405.17084266559584

>  <inter_energy>  (6) 
-406.18413517242345

>  <intra_energy>  (6) 
10.77867186070728

>  <rmsd>  (6) 
4.37386

>  <sdf_rank>  (6) 
0

$$$$

     RDKit          3D

 20 19  0  0  0  0  0  0  0  0999 V2000
   18.9185   16.1974  -26.4948 N   0  0  0  0  0  0  0  0  0  0  0  0
   19.9277   14.4162  -27.7360 C   0  0  0  0  0  0  0  0  0  0  0  0
   20.9925   14.8387  -28.0506 O   0  0  0  0  0  0  0  0  0  0  0  0
   17.5966   15.3544  -28.3552 C   0  0  0  0  0  0  0  0  0  0  0  0
   15.6141   14.1491  -28.6705 C   0  0  0  0  0  0  0  0  0  0  0  0
   15.6320   12.6625  -28.3287 C   0  0  0  0  0  0  0  0  0  0  0  0
   19.6459   12.9233  -27.6296 C   0  0  0  0  0  0  0  0  0  0  0  0
   18.8228   15.4071  -27.4603 C   0  0  0  0  0  0  0  0  0  0  0  0
   16.4588   14.8200  -27.7777 O   0  0  0  0  0  0  0  0  0  0  0  0
   17.8723   17.0781  -26.2503 O   0  0  0  0  0  0  0  0  0  0  0  0
   17.5936   15.7142  -29.4926 O   0  0  0  0  0  0  0  0  0  0  0  0
   15.9699   14.2974  -29.7008 H   0  0  0  0  0  0  0  0  0  0  0  0
   14.5901   14.5426  -28.5888 H   0  0  0  0  0  0  0  0  0  0  0  0
   15.6336   12.5376  -27.2358 H   0  0  0  0  0  0  0  0  0  0  0  0
   14.7397   12.1782  -28.7519 H   0  0  0  0  0  0  0  0  0  0  0  0
   16.5358   12.1999  -28.7519 H   0  0  0  0  0  0  0  0  0  0  0  0
   19.5915   12.6350  -26.5695 H   0  0  0  0  0  0  0  0  0  0  0  0
   18.6887   12.6948  -28.1213 H   0  0  0  0  0  0  0  0  0  0  0  0
   20.4539   12.3617  -28.1213 H   0  0  0  0  0  0  0  0  0  0  0  0
   17.9261   17.7124  -25.4921 H   0  0  0  0  0  0  0  0  0  0  0  0
  1  8  2  3
  1 10  1  0
  2  3  2  0
  2  7  1  0
  2  8  1  0
  4  8  1  0
  4  9  1  0
  4 11  2  0
  5  6  1  0
  5  9  1  0
  5 12  1  0
  5 13  1  0
  6 14  1  0
  6 15  1  0
  6 16  1  0
  7 17  1  0
  7 18  1  0
  7 19  1  0
 10 20  1  0
M  END
>  <filename_input>  (7) 
8AUH_L9I_docked.sdf

>  <pdb_id>  (7) 
8AUH_L9I

>  <pose_rank>  (7) 
6

>  <num_atoms_heavy>  (7) 
11

>  <num_torsions>  (7) 
4

>  <pose>  (7) 
[18.91850772072444, 16.1974185595944, -26.4948050507639, 0.8683496225477855, 2.6251267917116, 2.0504092653491277, -4.130031773034302, 0.36157155722546414, 0.18987713615081409, -0.8187223215503221]

>  <energy>  (7) 
-300.07531050088954

>  <inter_energy>  (7) 
-296.12410772604306

>  <intra_energy>  (7) 
3.2510027431600057

>  <rmsd>  (7) 
4.17411

>  <sdf_rank>  (7) 
0

$$$$

     RDKit          3D

 20 19  0  0  0  0  0  0  0  0999 V2000
   17.3332   14.0076  -28.1455 N   0  0  0  0  0  0  0  0  0  0  0  0
   19.4876   14.9591  -27.7157 C   0  0  0  0  0  0  0  0  0  0  0  0
   20.1651   15.8995  -27.9766 O   0  0  0  0  0  0  0  0  0  0  0  0
   17.4059   16.4394  -28.1313 C   0  0  0  0  0  0  0  0  0  0  0  0
   17.6671   18.4704  -26.9959 C   0  0  0  0  0  0  0  0  0  0  0  0
   16.4474   19.3638  -27.1993 C   0  0  0  0  0  0  0  0  0  0  0  0
   20.0693   13.6740  -27.1416 C   0  0  0  0  0  0  0  0  0  0  0  0
   18.0065   15.0512  -27.9924 C   0  0  0  0  0  0  0  0  0  0  0  0
   17.2386   17.1382  -26.9492 O   0  0  0  0  0  0  0  0  0  0  0  0
   15.9780   14.1261  -28.4270 O   0  0  0  0  0  0  0  0  0  0  0  0
   17.0639   16.9095  -29.1730 O   0  0  0  0  0  0  0  0  0  0  0  0
   18.3695   18.6053  -27.8316 H   0  0  0  0  0  0  0  0  0  0  0  0
   18.1766   18.7358  -26.0578 H   0  0  0  0  0  0  0  0  0  0  0  0
   16.0426   19.6602  -26.2204 H   0  0  0  0  0  0  0  0  0  0  0  0
   16.7407   20.2622  -27.7622 H   0  0  0  0  0  0  0  0  0  0  0  0
   15.6793   18.8130  -27.7622 H   0  0  0  0  0  0  0  0  0  0  0  0
   20.0481   13.7208  -26.0428 H   0  0  0  0  0  0  0  0  0  0  0  0
   19.4717   12.8162  -27.4836 H   0  0  0  0  0  0  0  0  0  0  0  0
   21.1082   13.5568  -27.4836 H   0  0  0  0  0  0  0  0  0  0  0  0
   15.4255   13.3141  -28.5520 H   0  0  0  0  0  0  0  0  0  0  0  0
  1  8  2  3
  1 10  1  0
  2  3  2  0
  2  7  1  0
  2  8  1  0
  4  8  1  0
  4  9  1  0
  4 11  2  0
  5  6  1  0
  5  9  1  0
  5 12  1  0
  5 13  1  0
  6 14  1  0
  6 15  1  0
  6 16  1  0
  7 17  1  0
  7 18  1  0
  7 19  1  0
 10 20  1  0
M  END
>  <filename_input>  (8) 
8AUH_L9I_docked.sdf

>  <pdb_id>  (8) 
8AUH_L9I

>  <pose_rank>  (8) 
7

>  <num_atoms_heavy>  (8) 
11

>  <num_torsions>  (8) 
4

>  <pose>  (8) 
[17.333203306168954, 14.007574987263562, -28.14545540837503, 1.1559598210552133, 0.2279529853114028, -2.860050940811516, -0.2522399859027295, -2.806216120102677, 5.125336911712219, -1.038442631403965]

>  <energy>  (8) 
-402.70936811790665

>  <inter_energy>  (8) 
-397.8773690210578

>  <intra_energy>  (8) 
7.773498105307951

>  <rmsd>  (8) 
4.8397

>  <sdf_rank>  (8) 
0

$$$$

     RDKit          3D

 20 19  0  0  0  0  0  0  0  0999 V2000
   19.1000   16.3531  -28.6124 N   0  0  0  0  0  0  0  0  0  0  0  0
   17.6468   17.6433  -27.2140 C   0  0  0  0  0  0  0  0  0  0  0  0
   18.1479   18.3545  -26.4052 O   0  0  0  0  0  0  0  0  0  0  0  0
   18.1345   15.1477  -26.7324 C   0  0  0  0  0  0  0  0  0  0  0  0
   16.1263   14.5675  -27.7873 C   0  0  0  0  0  0  0  0  0  0  0  0
   16.0143   14.1887  -29.2608 C   0  0  0  0  0  0  0  0  0  0  0  0
   16.2994   17.9596  -27.8495 C   0  0  0  0  0  0  0  0  0  0  0  0
   18.3734   16.3758  -27.5938 C   0  0  0  0  0  0  0  0  0  0  0  0
   17.3762   14.1483  -27.3152 O   0  0  0  0  0  0  0  0  0  0  0  0
   19.7328   15.1637  -28.9512 O   0  0  0  0  0  0  0  0  0  0  0  0
   18.5357   15.0375  -25.6143 O   0  0  0  0  0  0  0  0  0  0  0  0
   16.0344   15.6580  -27.6765 H   0  0  0  0  0  0  0  0  0  0  0  0
   15.3239   14.0834  -27.2114 H   0  0  0  0  0  0  0  0  0  0  0  0
   15.7031   13.1371  -29.3464 H   0  0  0  0  0  0  0  0  0  0  0  0
   15.2682   14.8327  -29.7493 H   0  0  0  0  0  0  0  0  0  0  0  0
   16.9907   14.3231  -29.7493 H   0  0  0  0  0  0  0  0  0  0  0  0
   15.5537   18.1347  -27.0600 H   0  0  0  0  0  0  0  0  0  0  0  0
   16.3909   18.8607  -28.4737 H   0  0  0  0  0  0  0  0  0  0  0  0
   15.9803   17.1120  -28.4737 H   0  0  0  0  0  0  0  0  0  0  0  0
   20.3124   15.1222  -29.7527 H   0  0  0  0  0  0  0  0  0  0  0  0
  1  8  2  3
  1 10  1  0
  2  3  2  0
  2  7  1  0
  2  8  1  0
  4  8  1  0
  4  9  1  0
  4 11  2  0
  5  6  1  0
  5  9  1  0
  5 12  1  0
  5 13  1  0
  6 14  1  0
  6 15  1  0
  6 16  1  0
  7 17  1  0
  7 18  1  0
  7 19  1  0
 10 20  1  0
M  END
>  <filename_input>  (9) 
8AUH_L9I_docked.sdf

>  <pdb_id>  (9) 
8AUH_L9I

>  <pose_rank>  (9) 
8

>  <num_atoms_heavy>  (9) 
11

>  <num_torsions>  (9) 
4

>  <pose>  (9) 
[19.100018749574183, 16.353063286197713, -28.612352901940618, 1.551873693479394, -3.5289243904735526, 2.460274711135921, 1.6038458077515438, 6.676258892688805, 1.8244136019887476, -0.5985667984773793]

>  <energy>  (9) 
-279.3218447867749

>  <inter_energy>  (9) 
-292.18681336194555

>  <intra_energy>  (9) 
13.2677653201102

>  <rmsd>  (9) 
2.95334

>  <sdf_rank>  (9) 
0

$$$$

     RDKit          3D

 20 19  0  0  0  0  0  0  0  0999 V2000
   17.5523   16.7085  -28.7985 N   0  0  0  0  0  0  0  0  0  0  0  0
   16.2120   18.1426  -27.4278 C   0  0  0  0  0  0  0  0  0  0  0  0
   15.1931   17.5420  -27.3167 O   0  0  0  0  0  0  0  0  0  0  0  0
   18.5662   17.3643  -26.6864 C   0  0  0  0  0  0  0  0  0  0  0  0
   19.7700   15.7478  -25.4945 C   0  0  0  0  0  0  0  0  0  0  0  0
   19.8117   14.3557  -26.1168 C   0  0  0  0  0  0  0  0  0  0  0  0
   16.2795   19.6583  -27.2953 C   0  0  0  0  0  0  0  0  0  0  0  0
   17.4673   17.3623  -27.7349 C   0  0  0  0  0  0  0  0  0  0  0  0
   18.5248   16.3229  -25.7767 O   0  0  0  0  0  0  0  0  0  0  0  0
   18.7092   15.9780  -29.0392 O   0  0  0  0  0  0  0  0  0  0  0  0
   19.4037   18.2103  -26.6095 O   0  0  0  0  0  0  0  0  0  0  0  0
   19.9055   15.6718  -24.4056 H   0  0  0  0  0  0  0  0  0  0  0  0
   20.5759   16.3708  -25.9097 H   0  0  0  0  0  0  0  0  0  0  0  0
   19.8344   13.5982  -25.3195 H   0  0  0  0  0  0  0  0  0  0  0  0
   18.9177   14.2056  -26.7399 H   0  0  0  0  0  0  0  0  0  0  0  0
   20.7132   14.2594  -26.7399 H   0  0  0  0  0  0  0  0  0  0  0  0
   16.2917   19.9331  -26.2302 H   0  0  0  0  0  0  0  0  0  0  0  0
   17.1950   20.0284  -27.7800 H   0  0  0  0  0  0  0  0  0  0  0  0
   15.4005   20.1082  -27.7800 H   0  0  0  0  0  0  0  0  0  0  0  0
   18.7987   15.4533  -29.8739 H   0  0  0  0  0  0  0  0  0  0  0  0
  1  8  2  3
  1 10  1  0
  2  3  2  0
  2  7  1  0
  2  8  1  0
  4  8  1  0
  4  9  1  0
  4 11  2  0
  5  6  1  0
  5  9  1  0
  5 12  1  0
  5 13  1  0
  6 14  1  0
  6 15  1  0
  6 16  1  0
  7 17  1  0
  7 18  1  0
  7 19  1  0
 10 20  1  0
M  END
>  <filename_input>  (10) 
8AUH_L9I_docked.sdf

>  <pdb_id>  (10) 
8AUH_L9I

>  <pose_rank>  (10) 
9

>  <num_atoms_heavy>  (10) 
11

>  <num_torsions>  (10) 
4

>  <pose>  (10) 
[17.552312457719257, 16.70852000619838, -28.79854559826955, 3.217635891103716, -1.91632110824732, 0.9768766295726825, -1.9192671111637298, 6.398332596431317, -1.104903469259292, 1.5937380803046706]

>  <energy>  (10) 
-347.1289405589806

>  <inter_energy>  (10) 
-341.1284062538515

>  <intra_energy>  (10) 
0.8458449503476906

>  <rmsd>  (10) 
2.68014

>  <sdf_rank>  (10) 
0

$$$$

     RDKit          3D

 20 19  0  0  0  0  0  0  0  0999 V2000
   16.3716   17.2164  -27.0041 N   0  0  0  0  0  0  0  0  0  0  0  0
   18.0136   18.8345  -26.3584 C   0  0  0  0  0  0  0  0  0  0  0  0
   17.1916   19.6791  -26.2096 O   0  0  0  0  0  0  0  0  0  0  0  0
   18.5247   16.2976  -26.3414 C   0  0  0  0  0  0  0  0  0  0  0  0
   20.2141   14.9060  -27.1732 C   0  0  0  0  0  0  0  0  0  0  0  0
   20.9647   14.6333  -28.4730 C   0  0  0  0  0  0  0  0  0  0  0  0
   19.5056   19.1378  -26.3176 C   0  0  0  0  0  0  0  0  0  0  0  0
   17.5443   17.4238  -26.6198 C   0  0  0  0  0  0  0  0  0  0  0  0
   19.1260   15.7407  -27.4559 O   0  0  0  0  0  0  0  0  0  0  0  0
   15.9612   15.9050  -27.2088 O   0  0  0  0  0  0  0  0  0  0  0  0
   18.7575   15.8801  -25.2484 O   0  0  0  0  0  0  0  0  0  0  0  0
   19.8539   13.9582  -26.7468 H   0  0  0  0  0  0  0  0  0  0  0  0
   20.8825   15.3908  -26.4464 H   0  0  0  0  0  0  0  0  0  0  0  0
   21.9756   14.2660  -28.2425 H   0  0  0  0  0  0  0  0  0  0  0  0
   20.4232   13.8745  -29.0569 H   0  0  0  0  0  0  0  0  0  0  0  0
   21.0366   15.5628  -29.0569 H   0  0  0  0  0  0  0  0  0  0  0  0
   19.8376   19.2053  -25.2711 H   0  0  0  0  0  0  0  0  0  0  0  0
   20.0572   18.3334  -26.8262 H   0  0  0  0  0  0  0  0  0  0  0  0
   19.6995   20.0937  -26.8262 H   0  0  0  0  0  0  0  0  0  0  0  0
   15.0380   15.7169  -27.5128 H   0  0  0  0  0  0  0  0  0  0  0  0
  1  8  2  3
  1 10  1  0
  2  3  2  0
  2  7  1  0
  2  8  1  0
  4  8  1  0
  4  9  1  0
  4 11  2  0
  5  6  1  0
  5  9  1  0
  5 12  1  0
  5 13  1  0
  6 14  1  0
  6 15  1  0
  6 16  1  0
  7 17  1  0
  7 18  1  0
  7 19  1  0
 10 20  1  0
M  END
>  <filename_input>  (11) 
8AUH_L9I_docked.sdf

>  <pdb_id>  (11) 
8AUH_L9I

>  <pose_rank>  (11) 
10

>  <num_atoms_heavy>  (11) 
11

>  <num_torsions>  (11) 
4

>  <pose>  (11) 
[16.37155335447285, 17.21635870083143, -27.00408372954459, 1.447036771347397, -2.4574758899846345, 0.43014824972267124, 9.880888980692472, 2.9878648963780705, -0.5759540118404375, 0.5884965841933999]

>  <energy>  (11) 
-389.29270367881827

>  <inter_energy>  (11) 
-372.71300869502085

>  <intra_energy>  (11) 
1.717551347946702

>  <rmsd>  (11) 
2.46277

>  <sdf_rank>  (11) 
0

$$$$

     RDKit          3D

 20 19  0  0  0  0  0  0  0  0999 V2000
   20.8418   15.2317  -28.4311 N   0  0  0  0  0  0  0  0  0  0  0  0
   19.4448   14.1310  -26.8285 C   0  0  0  0  0  0  0  0  0  0  0  0
   20.3369   13.8304  -26.1039 O   0  0  0  0  0  0  0  0  0  0  0  0
   18.5900   16.1310  -28.2308 C   0  0  0  0  0  0  0  0  0  0  0  0
   16.8412   17.2899  -27.1910 C   0  0  0  0  0  0  0  0  0  0  0  0
   16.6904   18.8069  -27.2463 C   0  0  0  0  0  0  0  0  0  0  0  0
   18.0660   13.4921  -26.7267 C   0  0  0  0  0  0  0  0  0  0  0  0
   19.7129   15.1648  -27.8952 C   0  0  0  0  0  0  0  0  0  0  0  0
   18.2063   16.9787  -27.2071 O   0  0  0  0  0  0  0  0  0  0  0  0
   21.0657   16.2123  -29.3894 O   0  0  0  0  0  0  0  0  0  0  0  0
   18.0370   16.1591  -29.2874 O   0  0  0  0  0  0  0  0  0  0  0  0
   16.3836   16.9048  -26.2678 H   0  0  0  0  0  0  0  0  0  0  0  0
   16.3392   16.8293  -28.0547 H   0  0  0  0  0  0  0  0  0  0  0  0
   16.6504   19.2089  -26.2232 H   0  0  0  0  0  0  0  0  0  0  0  0
   17.5497   19.2417  -27.7778 H   0  0  0  0  0  0  0  0  0  0  0  0
   15.7623   19.0640  -27.7778 H   0  0  0  0  0  0  0  0  0  0  0  0
   17.7969   13.3674  -25.6675 H   0  0  0  0  0  0  0  0  0  0  0  0
   17.3251   14.1386  -27.2196 H   0  0  0  0  0  0  0  0  0  0  0  0
   18.0803   12.5088  -27.2196 H   0  0  0  0  0  0  0  0  0  0  0  0
   21.9509   16.2842  -29.8267 H   0  0  0  0  0  0  0  0  0  0  0  0
  1  8  2  3
  1 10  1  0
  2  3  2  0
  2  7  1  0
  2  8  1  0
  4  8  1  0
  4  9  1  0
  4 11  2  0
  5  6  1  0
  5  9  1  0
  5 12  1  0
  5 13  1  0
  6 14  1  0
  6 15  1  0
  6 16  1  0
  7 17  1  0
  7 18  1  0
  7 19  1  0
 10 20  1  0
M  END
>  <filename_input>  (12) 
8AUH_L9I_docked.sdf

>  <pdb_id>  (12) 
8AUH_L9I

>  <pose_rank>  (12) 
11

>  <num_atoms_heavy>  (12) 
11

>  <num_torsions>  (12) 
4

>  <pose>  (12) 
[20.841756850874198, 15.231740925956737, -28.43114488624545, 2.427543530319223, 1.6650141454174714, -0.18201475778055726, -2.4140476102282253, 5.904693999161124, 0.23428237185266915, 1.3442887501402763]

>  <energy>  (12) 
-388.20958634530734

>  <inter_energy>  (12) 
-370.58519590532615

>  <intra_energy>  (12) 
4.268980864306472

>  <rmsd>  (12) 
4.3726

>  <sdf_rank>  (12) 
0

$$$$

     RDKit          3D

 20 19  0  0  0  0  0  0  0  0999 V2000
   18.4409   16.2431  -25.5894 N   0  0  0  0  0  0  0  0  0  0  0  0
   18.2085   18.3170  -26.7627 C   0  0  0  0  0  0  0  0  0  0  0  0
   18.9347   19.1563  -26.3391 O   0  0  0  0  0  0  0  0  0  0  0  0
   19.3765   16.2718  -27.8351 C   0  0  0  0  0  0  0  0  0  0  0  0
   19.0417   16.5080  -30.1404 C   0  0  0  0  0  0  0  0  0  0  0  0
   18.0006   17.5020  -30.6456 C   0  0  0  0  0  0  0  0  0  0  0  0
   16.8588   18.6501  -27.3847 C   0  0  0  0  0  0  0  0  0  0  0  0
   18.6445   16.8763  -26.6494 C   0  0  0  0  0  0  0  0  0  0  0  0
   18.5888   15.9674  -28.9308 O   0  0  0  0  0  0  0  0  0  0  0  0
   18.8791   14.9274  -25.5063 O   0  0  0  0  0  0  0  0  0  0  0  0
   20.5459   16.0361  -27.8385 O   0  0  0  0  0  0  0  0  0  0  0  0
   19.1764   15.7040  -30.8790 H   0  0  0  0  0  0  0  0  0  0  0  0
   20.0057   17.0158  -29.9891 H   0  0  0  0  0  0  0  0  0  0  0  0
   17.5019   17.9781  -29.7885 H   0  0  0  0  0  0  0  0  0  0  0  0
   18.4948   18.2720  -31.2564 H   0  0  0  0  0  0  0  0  0  0  0  0
   17.2544   16.9727  -31.2564 H   0  0  0  0  0  0  0  0  0  0  0  0
   16.1226   18.8317  -26.5878 H   0  0  0  0  0  0  0  0  0  0  0  0
   16.9546   19.5515  -28.0078 H   0  0  0  0  0  0  0  0  0  0  0  0
   16.5243   17.8075  -28.0078 H   0  0  0  0  0  0  0  0  0  0  0  0
   18.7290   14.4071  -24.6776 H   0  0  0  0  0  0  0  0  0  0  0  0
  1  8  2  3
  1 10  1  0
  2  3  2  0
  2  7  1  0
  2  8  1  0
  4  8  1  0
  4  9  1  0
  4 11  2  0
  5  6  1  0
  5  9  1  0
  5 12  1  0
  5 13  1  0
  6 14  1  0
  6 15  1  0
  6 16  1  0
  7 17  1  0
  7 18  1  0
  7 19  1  0
 10 20  1  0
M  END
>  <filename_input>  (13) 
8AUH_L9I_docked.sdf

>  <pdb_id>  (13) 
8AUH_L9I

>  <pose_rank>  (13) 
12

>  <num_atoms_heavy>  (13) 
11

>  <num_torsions>  (13) 
4

>  <pose>  (13) 
[18.440867098858515, 16.24308373415742, -25.589438211271847, -3.9516164031627934, 2.186056488980061, 0.7970655640343266, -1.5317782998724614, -2.797593337333478, -1.2786061298381364, 1.4811360733614565]

>  <energy>  (13) 
-387.298760858014

>  <inter_energy>  (13) 
-383.5660089548343

>  <intra_energy>  (13) 
4.043852051299728

>  <rmsd>  (13) 
2.77004

>  <sdf_rank>  (13) 
0

$$$$

     RDKit          3D

 20 19  0  0  0  0  0  0  0  0999 V2000
   17.1586   15.6595  -26.2978 N   0  0  0  0  0  0  0  0  0  0  0  0
   17.4629   17.5223  -27.7706 C   0  0  0  0  0  0  0  0  0  0  0  0
   17.5786   17.2716  -28.9260 O   0  0  0  0  0  0  0  0  0  0  0  0
   19.4044   16.5944  -26.3329 C   0  0  0  0  0  0  0  0  0  0  0  0
   20.2835   14.9249  -27.7195 C   0  0  0  0  0  0  0  0  0  0  0  0
   20.0875   13.4123  -27.6897 C   0  0  0  0  0  0  0  0  0  0  0  0
   16.8656   18.8348  -27.2807 C   0  0  0  0  0  0  0  0  0  0  0  0
   17.9525   16.5039  -26.7697 C   0  0  0  0  0  0  0  0  0  0  0  0
   20.1278   15.4183  -26.4183 O   0  0  0  0  0  0  0  0  0  0  0  0
   17.6330   14.7537  -25.3574 O   0  0  0  0  0  0  0  0  0  0  0  0
   19.9061   17.5914  -25.9117 O   0  0  0  0  0  0  0  0  0  0  0  0
   21.2928   15.1612  -28.0877 H   0  0  0  0  0  0  0  0  0  0  0  0
   19.5440   15.3879  -28.3894 H   0  0  0  0  0  0  0  0  0  0  0  0
   20.0430   13.0689  -26.6456 H   0  0  0  0  0  0  0  0  0  0  0  0
   19.1484   13.1541  -28.2009 H   0  0  0  0  0  0  0  0  0  0  0  0
   20.9298   12.9233  -28.2009 H   0  0  0  0  0  0  0  0  0  0  0  0
   16.8600   18.8471  -26.1808 H   0  0  0  0  0  0  0  0  0  0  0  0
   17.4702   19.6746  -27.6537 H   0  0  0  0  0  0  0  0  0  0  0  0
   15.8353   18.9306  -27.6537 H   0  0  0  0  0  0  0  0  0  0  0  0
   17.0230   14.0768  -24.9704 H   0  0  0  0  0  0  0  0  0  0  0  0
  1  8  2  3
  1 10  1  0
  2  3  2  0
  2  7  1  0
  2  8  1  0
  4  8  1  0
  4  9  1  0
  4 11  2  0
  5  6  1  0
  5  9  1  0
  5 12  1  0
  5 13  1  0
  6 14  1  0
  6 15  1  0
  6 16  1  0
  7 17  1  0
  7 18  1  0
  7 19  1  0
 10 20  1  0
M  END
>  <filename_input>  (14) 
8AUH_L9I_docked.sdf

>  <pdb_id>  (14) 
8AUH_L9I

>  <pose_rank>  (14) 
13

>  <num_atoms_heavy>  (14) 
11

>  <num_torsions>  (14) 
4

>  <pose>  (14) 
[17.158562086840078, 15.659511982502037, -26.29777664053203, -2.698499527213994, 2.0773484641553837, -2.0036182369188418, -4.63473108030293, -10.029333564728416, -8.668323890161288, -5.192037397263575]

>  <energy>  (14) 
-382.39334045957247

>  <inter_energy>  (14) 
-390.0370687896136

>  <intra_energy>  (14) 
12.304646406503336

>  <rmsd>  (14) 
2.05112

>  <sdf_rank>  (14) 
0

$$$$

     RDKit          3D

 20 19  0  0  0  0  0  0  0  0999 V2000
   20.1453   17.3262  -26.3131 N   0  0  0  0  0  0  0  0  0  0  0  0
   19.9697   15.3770  -27.6921 C   0  0  0  0  0  0  0  0  0  0  0  0
   20.6194   15.6861  -28.6374 O   0  0  0  0  0  0  0  0  0  0  0  0
   17.8885   16.4654  -26.6051 C   0  0  0  0  0  0  0  0  0  0  0  0
   16.2447   14.8543  -26.1753 C   0  0  0  0  0  0  0  0  0  0  0  0
   16.4767   13.3467  -26.1961 C   0  0  0  0  0  0  0  0  0  0  0  0
   19.6905   13.9218  -27.3398 C   0  0  0  0  0  0  0  0  0  0  0  0
   19.3895   16.4777  -26.8374 C   0  0  0  0  0  0  0  0  0  0  0  0
   17.4246   15.4791  -25.7532 O   0  0  0  0  0  0  0  0  0  0  0  0
   19.5837   18.3100  -25.5090 O   0  0  0  0  0  0  0  0  0  0  0  0
   17.1328   17.2233  -27.1318 O   0  0  0  0  0  0  0  0  0  0  0  0
   15.9804   15.2032  -27.1845 H   0  0  0  0  0  0  0  0  0  0  0  0
   15.4214   15.0997  -25.4882 H   0  0  0  0  0  0  0  0  0  0  0  0
   16.5346   12.9703  -25.1642 H   0  0  0  0  0  0  0  0  0  0  0  0
   15.6437   12.8547  -26.7196 H   0  0  0  0  0  0  0  0  0  0  0  0
   17.4190   13.1279  -26.7196 H   0  0  0  0  0  0  0  0  0  0  0  0
   19.6684   13.8071  -26.2461 H   0  0  0  0  0  0  0  0  0  0  0  0
   18.7186   13.6230  -27.7595 H   0  0  0  0  0  0  0  0  0  0  0  0
   20.4827   13.2844  -27.7595 H   0  0  0  0  0  0  0  0  0  0  0  0
   20.1622   18.9917  -25.0838 H   0  0  0  0  0  0  0  0  0  0  0  0
  1  8  2  3
  1 10  1  0
  2  3  2  0
  2  7  1  0
  2  8  1  0
  4  8  1  0
  4  9  1  0
  4 11  2  0
  5  6  1  0
  5  9  1  0
  5 12  1  0
  5 13  1  0
  6 14  1  0
  6 15  1  0
  6 16  1  0
  7 17  1  0
  7 18  1  0
  7 19  1  0
 10 20  1  0
M  END
>  <filename_input>  (15) 
8AUH_L9I_docked.sdf

>  <pdb_id>  (15) 
8AUH_L9I

>  <pose_rank>  (15) 
14

>  <num_atoms_heavy>  (15) 
11

>  <num_torsions>  (15) 
4

>  <pose>  (15) 
[20.145268852568854, 17.326190078173884, -26.313123387161713, 2.076327781100844, 2.857193900490144, 1.7866608213959558, -4.003936683813001, -0.23018474754146595, 0.3717887715634208, -0.5720693106447462]

>  <energy>  (15) 
-369.67051768308704

>  <inter_energy>  (15) 
-371.93990529683555

>  <intra_energy>  (15) 
11.100153646927156

>  <rmsd>  (15) 
3.44557

>  <sdf_rank>  (15) 
0

$$$$

     RDKit          3D

 20 19  0  0  0  0  0  0  0  0999 V2000
   19.2144   17.9870  -26.8343 N   0  0  0  0  0  0  0  0  0  0  0  0
   17.2111   19.2626  -27.1360 C   0  0  0  0  0  0  0  0  0  0  0  0
   17.5340   20.0376  -26.2955 O   0  0  0  0  0  0  0  0  0  0  0  0
   17.5269   16.9450  -28.2434 C   0  0  0  0  0  0  0  0  0  0  0  0
   16.4389   15.8427  -26.4874 C   0  0  0  0  0  0  0  0  0  0  0  0
   16.0353   14.4365  -26.0549 C   0  0  0  0  0  0  0  0  0  0  0  0
   15.9541   19.4520  -27.9748 C   0  0  0  0  0  0  0  0  0  0  0  0
   18.0749   18.0430  -27.3483 C   0  0  0  0  0  0  0  0  0  0  0  0
   17.2611   15.7410  -27.6163 O   0  0  0  0  0  0  0  0  0  0  0  0
   19.9963   16.8634  -27.0715 O   0  0  0  0  0  0  0  0  0  0  0  0
   17.3557   17.0739  -29.4169 O   0  0  0  0  0  0  0  0  0  0  0  0
   15.5403   16.4273  -26.7341 H   0  0  0  0  0  0  0  0  0  0  0  0
   16.9781   16.3477  -25.6724 H   0  0  0  0  0  0  0  0  0  0  0  0
   16.0194   14.3811  -24.9564 H   0  0  0  0  0  0  0  0  0  0  0  0
   15.0345   14.2049  -26.4482 H   0  0  0  0  0  0  0  0  0  0  0  0
   16.7611   13.7095  -26.4482 H   0  0  0  0  0  0  0  0  0  0  0  0
   15.0866   19.5827  -27.3111 H   0  0  0  0  0  0  0  0  0  0  0  0
   16.0676   20.3432  -28.6096 H   0  0  0  0  0  0  0  0  0  0  0  0
   15.8001   18.5669  -28.6096 H   0  0  0  0  0  0  0  0  0  0  0  0
   20.9010   16.7973  -26.6751 H   0  0  0  0  0  0  0  0  0  0  0  0
  1  8  2  3
  1 10  1  0
  2  3  2  0
  2  7  1  0
  2  8  1  0
  4  8  1  0
  4  9  1  0
  4 11  2  0
  5  6  1  0
  5  9  1  0
  5 12  1  0
  5 13  1  0
  6 14  1  0
  6 15  1  0
  6 16  1  0
  7 17  1  0
  7 18  1  0
  7 19  1  0
 10 20  1  0
M  END
>  <filename_input>  (16) 
8AUH_L9I_docked.sdf

>  <pdb_id>  (16) 
8AUH_L9I

>  <pose_rank>  (16) 
15

>  <num_atoms_heavy>  (16) 
11

>  <num_torsions>  (16) 
4

>  <pose>  (16) 
[19.21443826372176, 17.98700204334641, -26.8342644329725, -3.570724296350486, -1.9276506228980959, 3.3011339011070797, 3.0568569978585844, 2.7911673377596653, -2.5768534037946083, 0.18875281963290014]

>  <energy>  (16) 
-296.78857309607815

>  <inter_energy>  (16) 
-302.4228480078975

>  <intra_energy>  (16) 
14.296416779046666

>  <rmsd>  (16) 
3.14635

>  <sdf_rank>  (16) 
0

$$$$

     RDKit          3D

 20 19  0  0  0  0  0  0  0  0999 V2000
   15.5199   16.3826  -27.9648 N   0  0  0  0  0  0  0  0  0  0  0  0
   16.7671   17.9285  -29.3014 C   0  0  0  0  0  0  0  0  0  0  0  0
   16.6795   19.0771  -29.0111 O   0  0  0  0  0  0  0  0  0  0  0  0
   17.8713   16.5954  -27.3776 C   0  0  0  0  0  0  0  0  0  0  0  0
   19.4404   15.3447  -28.5843 C   0  0  0  0  0  0  0  0  0  0  0  0
   19.9816   13.9238  -28.7079 C   0  0  0  0  0  0  0  0  0  0  0  0
   16.9832   17.4684  -30.7370 C   0  0  0  0  0  0  0  0  0  0  0  0
   16.6325   16.9046  -28.2003 C   0  0  0  0  0  0  0  0  0  0  0  0
   18.4425   15.3556  -27.6020 O   0  0  0  0  0  0  0  0  0  0  0  0
   15.4226   15.4647  -26.9265 O   0  0  0  0  0  0  0  0  0  0  0  0
   18.3258   17.3396  -26.5636 O   0  0  0  0  0  0  0  0  0  0  0  0
   20.2530   16.0275  -28.2955 H   0  0  0  0  0  0  0  0  0  0  0  0
   19.0248   15.6751  -29.5477 H   0  0  0  0  0  0  0  0  0  0  0  0
   20.1416   13.5037  -27.7039 H   0  0  0  0  0  0  0  0  0  0  0  0
   19.2574   13.3018  -29.2544 H   0  0  0  0  0  0  0  0  0  0  0  0
   20.9360   13.9412  -29.2544 H   0  0  0  0  0  0  0  0  0  0  0  0
   17.4509   16.4727  -30.7365 H   0  0  0  0  0  0  0  0  0  0  0  0
   16.0145   17.4181  -31.2558 H   0  0  0  0  0  0  0  0  0  0  0  0
   17.6403   18.1819  -31.2558 H   0  0  0  0  0  0  0  0  0  0  0  0
   14.5525   15.0391  -26.7220 H   0  0  0  0  0  0  0  0  0  0  0  0
  1  8  2  3
  1 10  1  0
  2  3  2  0
  2  7  1  0
  2  8  1  0
  4  8  1  0
  4  9  1  0
  4 11  2  0
  5  6  1  0
  5  9  1  0
  5 12  1  0
  5 13  1  0
  6 14  1  0
  6 15  1  0
  6 16  1  0
  7 17  1  0
  7 18  1  0
  7 19  1  0
 10 20  1  0
M  END
>  <filename_input>  (17) 
8AUH_L9I_docked.sdf

>  <pdb_id>  (17) 
8AUH_L9I

>  <pose_rank>  (17) 
16

>  <num_atoms_heavy>  (17) 
11

>  <num_torsions>  (17) 
4

>  <pose>  (17) 
[15.519852732484226, 16.382622311353487, -27.964780338024465, 1.171200657991531, -1.548924064599509, 1.242270201112203, -1.352378897299371, -9.67216505596637, 4.382289852156874, 0.3508207218381823]

>  <energy>  (17) 
-277.1713615055464

>  <inter_energy>  (17) 
-276.6416453770271

>  <intra_energy>  (17) 
2.7691283320585267

>  <rmsd>  (17) 
3.11789

>  <sdf_rank>  (17) 
0

$$$$

     RDKit          3D

 20 19  0  0  0  0  0  0  0  0999 V2000
   19.1506   18.8002  -25.6972 N   0  0  0  0  0  0  0  0  0  0  0  0
   17.2530   18.1108  -26.9840 C   0  0  0  0  0  0  0  0  0  0  0  0
   17.1277   19.1582  -27.5303 O   0  0  0  0  0  0  0  0  0  0  0  0
   19.0562   16.4237  -26.2097 C   0  0  0  0  0  0  0  0  0  0  0  0
   20.2847   14.7333  -27.2661 C   0  0  0  0  0  0  0  0  0  0  0  0
   20.9765   14.4415  -28.5941 C   0  0  0  0  0  0  0  0  0  0  0  0
   16.1601   17.0502  -27.0018 C   0  0  0  0  0  0  0  0  0  0  0  0
   18.5355   17.8504  -26.2316 C   0  0  0  0  0  0  0  0  0  0  0  0
   19.8916   16.0773  -27.2565 O   0  0  0  0  0  0  0  0  0  0  0  0
   20.3426   18.5321  -25.0361 O   0  0  0  0  0  0  0  0  0  0  0  0
   18.7577   15.6247  -25.3757 O   0  0  0  0  0  0  0  0  0  0  0  0
   19.4009   14.0874  -27.1582 H   0  0  0  0  0  0  0  0  0  0  0  0
   20.9727   14.5356  -26.4310 H   0  0  0  0  0  0  0  0  0  0  0  0
   21.9746   14.0204  -28.4028 H   0  0  0  0  0  0  0  0  0  0  0  0
   20.3778   13.7192  -29.1685 H   0  0  0  0  0  0  0  0  0  0  0  0
   21.0760   15.3743  -29.1685 H   0  0  0  0  0  0  0  0  0  0  0  0
   15.8883   16.7864  -25.9690 H   0  0  0  0  0  0  0  0  0  0  0  0
   15.2759   17.4436  -27.5246 H   0  0  0  0  0  0  0  0  0  0  0  0
   16.5269   16.1546  -27.5246 H   0  0  0  0  0  0  0  0  0  0  0  0
   20.8463   19.2678  -24.6059 H   0  0  0  0  0  0  0  0  0  0  0  0
  1  8  2  3
  1 10  1  0
  2  3  2  0
  2  7  1  0
  2  8  1  0
  4  8  1  0
  4  9  1  0
  4 11  2  0
  5  6  1  0
  5  9  1  0
  5 12  1  0
  5 13  1  0
  6 14  1  0
  6 15  1  0
  6 16  1  0
  7 17  1  0
  7 18  1  0
  7 19  1  0
 10 20  1  0
M  END
>  <filename_input>  (18) 
8AUH_L9I_docked.sdf

>  <pdb_id>  (18) 
8AUH_L9I

>  <pose_rank>  (18) 
17

>  <num_atoms_heavy>  (18) 
11

>  <num_torsions>  (18) 
4

>  <pose>  (18) 
[19.150552372963226, 18.800152830173694, -25.697223009349983, -4.541612030300361, -3.827920907833735, 1.8660483780078625, 3.8240987476667203, 0.051077574454995875, 5.997500858602589, 0.1809829295552294]

>  <energy>  (18) 
-454.4429911952349

>  <inter_energy>  (18) 
-457.7675948074797

>  <intra_energy>  (18) 
1.7123790729177286

>  <rmsd>  (18) 
1.05719

>  <sdf_rank>  (18) 
0

$$$$

     RDKit          3D

 20 19  0  0  0  0  0  0  0  0999 V2000
   17.7137   16.3772  -29.7888 N   0  0  0  0  0  0  0  0  0  0  0  0
   17.3488   18.3018  -28.4123 C   0  0  0  0  0  0  0  0  0  0  0  0
   17.1638   18.9966  -29.3579 O   0  0  0  0  0  0  0  0  0  0  0  0
   18.3508   16.1160  -27.4553 C   0  0  0  0  0  0  0  0  0  0  0  0
   20.3173   14.8508  -27.3337 C   0  0  0  0  0  0  0  0  0  0  0  0
   21.0406   14.6810  -28.6661 C   0  0  0  0  0  0  0  0  0  0  0  0
   17.1525   18.8015  -26.9870 C   0  0  0  0  0  0  0  0  0  0  0  0
   17.8175   16.8867  -28.6505 C   0  0  0  0  0  0  0  0  0  0  0  0
   19.7263   16.1200  -27.3081 O   0  0  0  0  0  0  0  0  0  0  0  0
   18.1278   15.0635  -29.9693 O   0  0  0  0  0  0  0  0  0  0  0  0
   17.6564   15.5131  -26.6954 O   0  0  0  0  0  0  0  0  0  0  0  0
   19.5413   14.0779  -27.2316 H   0  0  0  0  0  0  0  0  0  0  0  0
   21.0302   14.7499  -26.5021 H   0  0  0  0  0  0  0  0  0  0  0  0
   22.0963   14.4333  -28.4813 H   0  0  0  0  0  0  0  0  0  0  0  0
   20.5683   13.8693  -29.2389 H   0  0  0  0  0  0  0  0  0  0  0  0
   20.9787   15.6181  -29.2389 H   0  0  0  0  0  0  0  0  0  0  0  0
   17.4601   18.0184  -26.2783 H   0  0  0  0  0  0  0  0  0  0  0  0
   17.7638   19.7018  -26.8267 H   0  0  0  0  0  0  0  0  0  0  0  0
   16.0919   19.0451  -26.8267 H   0  0  0  0  0  0  0  0  0  0  0  0
   18.0551   14.6397  -30.8611 H   0  0  0  0  0  0  0  0  0  0  0  0
  1  8  2  3
  1 10  1  0
  2  3  2  0
  2  7  1  0
  2  8  1  0
  4  8  1  0
  4  9  1  0
  4 11  2  0
  5  6  1  0
  5  9  1  0
  5 12  1  0
  5 13  1  0
  6 14  1  0
  6 15  1  0
  6 16  1  0
  7 17  1  0
  7 18  1  0
  7 19  1  0
 10 20  1  0
M  END
>  <filename_input>  (19) 
8AUH_L9I_docked.sdf

>  <pdb_id>  (19) 
8AUH_L9I

>  <pose_rank>  (19) 
18

>  <num_atoms_heavy>  (19) 
11

>  <num_torsions>  (19) 
4

>  <pose>  (19) 
[17.71367610588628, 16.377195496497354, -29.788751132967725, 2.0654024142020386, -2.7792463090633563, 1.6530816763633256, 3.0040131711555773, 3.1036828218064083, 0.6821657357351444, -0.9197750710570048]

>  <energy>  (19) 
-338.2176344689353

>  <inter_energy>  (19) 
-345.29579159374134

>  <intra_energy>  (19) 
7.898174506792323

>  <rmsd>  (19) 
2.73602

>  <sdf_rank>  (19) 
0

$$$$

     RDKit          3D

 20 19  0  0  0  0  0  0  0  0999 V2000
   16.5519   16.6525  -27.7958 N   0  0  0  0  0  0  0  0  0  0  0  0
   16.9128   17.9998  -29.7416 C   0  0  0  0  0  0  0  0  0  0  0  0
   17.1336   17.0555  -30.4278 O   0  0  0  0  0  0  0  0  0  0  0  0
   16.9942   19.0045  -27.3581 C   0  0  0  0  0  0  0  0  0  0  0  0
   18.4295   20.2513  -25.9913 C   0  0  0  0  0  0  0  0  0  0  0  0
   19.9440   20.4307  -25.9550 C   0  0  0  0  0  0  0  0  0  0  0  0
   16.7513   19.4008  -30.3165 C   0  0  0  0  0  0  0  0  0  0  0  0
   16.8168   17.7880  -28.2501 C   0  0  0  0  0  0  0  0  0  0  0  0
   18.1430   19.0171  -26.5875 O   0  0  0  0  0  0  0  0  0  0  0  0
   16.4426   16.4959  -26.4198 O   0  0  0  0  0  0  0  0  0  0  0  0
   16.1984   19.8901  -27.2836 O   0  0  0  0  0  0  0  0  0  0  0  0
   18.0288   20.2706  -24.9671 H   0  0  0  0  0  0  0  0  0  0  0  0
   17.9670   21.0654  -26.5687 H   0  0  0  0  0  0  0  0  0  0  0  0
   20.2835   20.4709  -24.9095 H   0  0  0  0  0  0  0  0  0  0  0  0
   20.4259   19.5834  -26.4647 H   0  0  0  0  0  0  0  0  0  0  0  0
   20.2146   21.3672  -26.4647 H   0  0  0  0  0  0  0  0  0  0  0  0
   16.6676   20.1270  -29.4945 H   0  0  0  0  0  0  0  0  0  0  0  0
   17.6271   19.6466  -30.9351 H   0  0  0  0  0  0  0  0  0  0  0  0
   15.8426   19.4409  -30.9351 H   0  0  0  0  0  0  0  0  0  0  0  0
   16.2337   15.6068  -26.0378 H   0  0  0  0  0  0  0  0  0  0  0  0
  1  8  2  3
  1 10  1  0
  2  3  2  0
  2  7  1  0
  2  8  1  0
  4  8  1  0
  4  9  1  0
  4 11  2  0
  5  6  1  0
  5  9  1  0
  5 12  1  0
  5 13  1  0
  6 14  1  0
  6 15  1  0
  6 16  1  0
  7 17  1  0
  7 18  1  0
  7 19  1  0
 10 20  1  0
M  END
>  <filename_input>  (20) 
8AUH_L9I_docked.sdf

>  <pdb_id>  (20) 
8AUH_L9I

>  <pose_rank>  (20) 
19

>  <num_atoms_heavy>  (20) 
11

>  <num_torsions>  (20) 
4

>  <pose>  (20) 
[16.551925373702524, 16.652477872518617, -27.79577710339194, 1.325745325658586, -0.6040519760650797, 2.6189807197199255, -9.668182225948001, -3.4470000428880065, -0.580108041538199, 0.9712829563524061]

>  <energy>  (20) 
-308.72358746500913

>  <inter_energy>  (20) 
-296.4714526464228

>  <intra_energy>  (20) 
10.637978249714152

>  <rmsd>  (20) 
4.45276

>  <sdf_rank>  (20) 
0

$$$$

     RDKit          3D

 20 19  0  0  0  0  0  0  0  0999 V2000
   18.6916   16.2415  -29.0377 N   0  0  0  0  0  0  0  0  0  0  0  0
   18.7107   14.9537  -27.0195 C   0  0  0  0  0  0  0  0  0  0  0  0
   18.9065   13.8121  -27.2830 O   0  0  0  0  0  0  0  0  0  0  0  0
   16.5823   16.1851  -27.8265 C   0  0  0  0  0  0  0  0  0  0  0  0
   15.5914   18.1381  -26.9981 C   0  0  0  0  0  0  0  0  0  0  0  0
   16.5225   19.3442  -26.9245 C   0  0  0  0  0  0  0  0  0  0  0  0
   19.0924   15.5528  -25.6724 C   0  0  0  0  0  0  0  0  0  0  0  0
   18.0378   15.8179  -28.0584 C   0  0  0  0  0  0  0  0  0  0  0  0
   16.3368   16.9847  -26.7247 O   0  0  0  0  0  0  0  0  0  0  0  0
   18.0512   17.0578  -29.9616 O   0  0  0  0  0  0  0  0  0  0  0  0
   15.6868   15.7997  -28.5140 O   0  0  0  0  0  0  0  0  0  0  0  0
   14.7867   18.2445  -26.2557 H   0  0  0  0  0  0  0  0  0  0  0  0
   15.1428   18.0685  -28.0001 H   0  0  0  0  0  0  0  0  0  0  0  0
   16.7157   19.5945  -25.8709 H   0  0  0  0  0  0  0  0  0  0  0  0
   17.4725   19.1051  -27.4247 H   0  0  0  0  0  0  0  0  0  0  0  0
   16.0506   20.2028  -27.4247 H   0  0  0  0  0  0  0  0  0  0  0  0
   18.6914   14.9234  -24.8643 H   0  0  0  0  0  0  0  0  0  0  0  0
   20.1883   15.6013  -25.5899 H   0  0  0  0  0  0  0  0  0  0  0  0
   18.6734   16.5665  -25.5899 H   0  0  0  0  0  0  0  0  0  0  0  0
   18.5486   17.4046  -30.7442 H   0  0  0  0  0  0  0  0  0  0  0  0
  1  8  2  3
  1 10  1  0
  2  3  2  0
  2  7  1  0
  2  8  1  0
  4  8  1  0
  4  9  1  0
  4 11  2  0
  5  6  1  0
  5  9  1  0
  5 12  1  0
  5 13  1  0
  6 14  1  0
  6 15  1  0
  6 16  1  0
  7 17  1  0
  7 18  1  0
  7 19  1  0
 10 20  1  0
M  END
>  <filename_input>  (21) 
8AUH_L9I_docked.sdf

>  <pdb_id>  (21) 
8AUH_L9I

>  <pose_rank>  (21) 
20

>  <num_atoms_heavy>  (21) 
11

>  <num_torsions>  (21) 
4

>  <pose>  (21) 
[18.69160327398111, 16.241485904342763, -29.037745400880297, -2.0074647333251394, -2.307577462188594, 0.7631929163342739, 1.938920973750962, -0.3586229753310704, 5.008997518519192, 1.6313062179337188]

>  <energy>  (21) 
-315.6108928376451

>  <inter_energy>  (21) 
-310.414827793135

>  <intra_energy>  (21) 
6.883828159382821

>  <rmsd>  (21) 
4.50904

>  <sdf_rank>  (21) 
0

$$$$

     RDKit          3D

 20 19  0  0  0  0  0  0  0  0999 V2000
   17.3252   16.1893  -29.3438 N   0  0  0  0  0  0  0  0  0  0  0  0
   15.8474   15.5188  -27.5837 C   0  0  0  0  0  0  0  0  0  0  0  0
   14.9482   16.2752  -27.4089 O   0  0  0  0  0  0  0  0  0  0  0  0
   18.2268   16.4117  -27.0951 C   0  0  0  0  0  0  0  0  0  0  0  0
   19.8147   14.7327  -27.4721 C   0  0  0  0  0  0  0  0  0  0  0  0
   19.3370   13.3115  -27.7534 C   0  0  0  0  0  0  0  0  0  0  0  0
   15.7304   14.0328  -27.2713 C   0  0  0  0  0  0  0  0  0  0  0  0
   17.1494   16.0718  -28.1104 C   0  0  0  0  0  0  0  0  0  0  0  0
   18.9204   15.3326  -26.5771 O   0  0  0  0  0  0  0  0  0  0  0  0
   18.5449   16.6749  -29.7983 O   0  0  0  0  0  0  0  0  0  0  0  0
   18.4606   17.5222  -26.7274 O   0  0  0  0  0  0  0  0  0  0  0  0
   20.8210   14.7051  -27.0287 H   0  0  0  0  0  0  0  0  0  0  0  0
   19.8552   15.3092  -28.4081 H   0  0  0  0  0  0  0  0  0  0  0  0
   19.1612   12.7887  -26.8017 H   0  0  0  0  0  0  0  0  0  0  0  0
   18.4013   13.3467  -28.3307 H   0  0  0  0  0  0  0  0  0  0  0  0
   20.1039   12.7744  -28.3307 H   0  0  0  0  0  0  0  0  0  0  0  0
   15.7189   13.8871  -26.1811 H   0  0  0  0  0  0  0  0  0  0  0  0
   14.7985   13.6395  -27.7036 H   0  0  0  0  0  0  0  0  0  0  0  0
   16.5892   13.4985  -27.7036 H   0  0  0  0  0  0  0  0  0  0  0  0
   18.7064   16.7763  -30.7697 H   0  0  0  0  0  0  0  0  0  0  0  0
  1  8  2  3
  1 10  1  0
  2  3  2  0
  2  7  1  0
  2  8  1  0
  4  8  1  0
  4  9  1  0
  4 11  2  0
  5  6  1  0
  5  9  1  0
  5 12  1  0
  5 13  1  0
  6 14  1  0
  6 15  1  0
  6 16  1  0
  7 17  1  0
  7 18  1  0
  7 19  1  0
 10 20  1  0
M  END
>  <filename_input>  (22) 
8AUH_L9I_docked.sdf

>  <pdb_id>  (22) 
8AUH_L9I

>  <pose_rank>  (22) 
21

>  <num_atoms_heavy>  (22) 
11

>  <num_torsions>  (22) 
4

>  <pose>  (22) 
[17.325182547541964, 16.18933890465263, -29.34383624879583, 4.225036218681717, -1.0469055842161157, -0.45926886199942596, -10.793980279391567, -0.15457161866573427, -2.238249677936916, 1.4900191297276604]

>  <energy>  (22) 
-272.6043815750663

>  <inter_energy>  (22) 
-284.45762495895605

>  <intra_energy>  (22) 
8.876252777699268

>  <rmsd>  (22) 
3.12047

>  <sdf_rank>  (22) 
0

$$$$

     RDKit          3D

 20 19  0  0  0  0  0  0  0  0999 V2000
   18.4157   14.9210  -29.1003 N   0  0  0  0  0  0  0  0  0  0  0  0
   16.5807   15.9443  -30.2480 C   0  0  0  0  0  0  0  0  0  0  0  0
   17.0948   15.7816  -31.3065 O   0  0  0  0  0  0  0  0  0  0  0  0
   16.8536   16.1316  -27.6814 C   0  0  0  0  0  0  0  0  0  0  0  0
   17.1381   18.3945  -27.1514 C   0  0  0  0  0  0  0  0  0  0  0  0
   18.1361   19.3392  -26.4889 C   0  0  0  0  0  0  0  0  0  0  0  0
   15.1634   16.4841  -30.1084 C   0  0  0  0  0  0  0  0  0  0  0  0
   17.3835   15.6229  -29.0108 C   0  0  0  0  0  0  0  0  0  0  0  0
   17.6325   17.0880  -27.0550 O   0  0  0  0  0  0  0  0  0  0  0  0
   19.1171   14.6191  -27.9398 O   0  0  0  0  0  0  0  0  0  0  0  0
   15.8521   15.7299  -27.1727 O   0  0  0  0  0  0  0  0  0  0  0  0
   16.1668   18.4625  -26.6396 H   0  0  0  0  0  0  0  0  0  0  0  0
   17.0025   18.6695  -28.2078 H   0  0  0  0  0  0  0  0  0  0  0  0
   18.0489   19.2567  -25.3955 H   0  0  0  0  0  0  0  0  0  0  0  0
   19.1569   19.0687  -26.7968 H   0  0  0  0  0  0  0  0  0  0  0  0
   17.9221   20.3733  -26.7968 H   0  0  0  0  0  0  0  0  0  0  0  0
   14.9110   16.5802  -29.0421 H   0  0  0  0  0  0  0  0  0  0  0  0
   15.0974   17.4703  -30.5912 H   0  0  0  0  0  0  0  0  0  0  0  0
   14.4581   15.7917  -30.5912 H   0  0  0  0  0  0  0  0  0  0  0  0
   19.9364   14.0654  -27.9865 H   0  0  0  0  0  0  0  0  0  0  0  0
  1  8  2  3
  1 10  1  0
  2  3  2  0
  2  7  1  0
  2  8  1  0
  4  8  1  0
  4  9  1  0
  4 11  2  0
  5  6  1  0
  5  9  1  0
  5 12  1  0
  5 13  1  0
  6 14  1  0
  6 15  1  0
  6 16  1  0
  7 17  1  0
  7 18  1  0
  7 19  1  0
 10 20  1  0
M  END
>  <filename_input>  (23) 
8AUH_L9I_docked.sdf

>  <pdb_id>  (23) 
8AUH_L9I

>  <pose_rank>  (23) 
22

>  <num_atoms_heavy>  (23) 
11

>  <num_torsions>  (23) 
4

>  <pose>  (23) 
[18.415693523468164, 14.921005644138907, -29.100324134998907, 2.835264725338365, -0.28983823973652934, 2.9278903704672805, -9.56834901188437, -3.483632699936519, -1.6881403167522593, 0.4172816911735804]

>  <energy>  (23) 
-294.17689908750367

>  <inter_energy>  (23) 
-301.0914740440358

>  <intra_energy>  (23) 
11.731547865901284

>  <rmsd>  (23) 
4.21818

>  <sdf_rank>  (23) 
0

$$$$

     RDKit          3D

 20 19  0  0  0  0  0  0  0  0999 V2000
   17.5056   13.1179  -27.2987 N   0  0  0  0  0  0  0  0  0  0  0  0
   19.4276   13.9624  -28.4496 C   0  0  0  0  0  0  0  0  0  0  0  0
   20.2736   14.2512  -27.6673 O   0  0  0  0  0  0  0  0  0  0  0  0
   17.1644   15.2172  -28.4802 C   0  0  0  0  0  0  0  0  0  0  0  0
   16.5744   17.1601  -27.3143 C   0  0  0  0  0  0  0  0  0  0  0  0
   16.9921   18.6250  -27.2319 C   0  0  0  0  0  0  0  0  0  0  0  0
   19.7510   13.5511  -29.8799 C   0  0  0  0  0  0  0  0  0  0  0  0
   17.9885   14.0351  -27.9998 C   0  0  0  0  0  0  0  0  0  0  0  0
   17.5647   16.4546  -28.0089 O   0  0  0  0  0  0  0  0  0  0  0  0
   16.1703   13.2000  -26.9245 O   0  0  0  0  0  0  0  0  0  0  0  0
   16.2127   15.1126  -29.1918 O   0  0  0  0  0  0  0  0  0  0  0  0
   16.4667   16.7473  -26.3004 H   0  0  0  0  0  0  0  0  0  0  0  0
   15.6109   17.0715  -27.8376 H   0  0  0  0  0  0  0  0  0  0  0  0
   17.0772   18.9232  -26.1765 H   0  0  0  0  0  0  0  0  0  0  0  0
   17.9639   18.7577  -27.7298 H   0  0  0  0  0  0  0  0  0  0  0  0
   16.2365   19.2503  -27.7298 H   0  0  0  0  0  0  0  0  0  0  0  0
   20.4308   12.6864  -29.8680 H   0  0  0  0  0  0  0  0  0  0  0  0
   18.8218   13.2798  -30.4024 H   0  0  0  0  0  0  0  0  0  0  0  0
   20.2339   14.3900  -30.4024 H   0  0  0  0  0  0  0  0  0  0  0  0
   15.7669   12.4859  -26.3700 H   0  0  0  0  0  0  0  0  0  0  0  0
  1  8  2  3
  1 10  1  0
  2  3  2  0
  2  7  1  0
  2  8  1  0
  4  8  1  0
  4  9  1  0
  4 11  2  0
  5  6  1  0
  5  9  1  0
  5 12  1  0
  5 13  1  0
  6 14  1  0
  6 15  1  0
  6 16  1  0
  7 17  1  0
  7 18  1  0
  7 19  1  0
 10 20  1  0
M  END
>  <filename_input>  (24) 
8AUH_L9I_docked.sdf

>  <pdb_id>  (24) 
8AUH_L9I

>  <pose_rank>  (24) 
23

>  <num_atoms_heavy>  (24) 
11

>  <num_torsions>  (24) 
4

>  <pose>  (24) 
[17.505624092213417, 13.117930510612366, -27.298725077051824, -0.3837477100664487, 0.5400888556873871, 3.3203785177052216, -10.652057112883648, -2.6416564557212694, 0.6463336390759739, 0.6583493485019526]

>  <energy>  (24) 
-260.4917905400242

>  <inter_energy>  (24) 
-268.6211574567554

>  <intra_energy>  (24) 
5.634613748016328

>  <rmsd>  (24) 
4.99515

>  <sdf_rank>  (24) 
0

$$$$

     RDKit          3D

 20 19  0  0  0  0  0  0  0  0999 V2000
   16.7080   14.3232  -26.7801 N   0  0  0  0  0  0  0  0  0  0  0  0
   18.9774   14.1244  -27.5163 C   0  0  0  0  0  0  0  0  0  0  0  0
   20.0200   14.6926  -27.4799 O   0  0  0  0  0  0  0  0  0  0  0  0
   17.7533   16.4044  -27.4837 C   0  0  0  0  0  0  0  0  0  0  0  0
   17.5613   18.5455  -26.5558 C   0  0  0  0  0  0  0  0  0  0  0  0
   18.7549   19.4483  -26.2601 C   0  0  0  0  0  0  0  0  0  0  0  0
   18.8683   12.6514  -27.8877 C   0  0  0  0  0  0  0  0  0  0  0  0
   17.7275   14.9115  -27.2048 C   0  0  0  0  0  0  0  0  0  0  0  0
   17.9578   17.2140  -26.3809 O   0  0  0  0  0  0  0  0  0  0  0  0
   15.5646   15.0714  -26.5296 O   0  0  0  0  0  0  0  0  0  0  0  0
   17.5815   16.8768  -28.5655 O   0  0  0  0  0  0  0  0  0  0  0  0
   16.7377   18.7813  -25.8657 H   0  0  0  0  0  0  0  0  0  0  0  0
   17.2155   18.7035  -27.5880 H   0  0  0  0  0  0  0  0  0  0  0  0
   18.8815   19.5440  -25.1716 H   0  0  0  0  0  0  0  0  0  0  0  0
   19.6638   19.0096  -26.6977 H   0  0  0  0  0  0  0  0  0  0  0  0
   18.5802   20.4423  -26.6977 H   0  0  0  0  0  0  0  0  0  0  0  0
   18.8233   12.0446  -26.9713 H   0  0  0  0  0  0  0  0  0  0  0  0
   17.9557   12.4892  -28.4800 H   0  0  0  0  0  0  0  0  0  0  0  0
   19.7470   12.3566  -28.4800 H   0  0  0  0  0  0  0  0  0  0  0  0
   14.7462   14.6273  -26.1932 H   0  0  0  0  0  0  0  0  0  0  0  0
  1  8  2  3
  1 10  1  0
  2  3  2  0
  2  7  1  0
  2  8  1  0
  4  8  1  0
  4  9  1  0
  4 11  2  0
  5  6  1  0
  5  9  1  0
  5 12  1  0
  5 13  1  0
  6 14  1  0
  6 15  1  0
  6 16  1  0
  7 17  1  0
  7 18  1  0
  7 19  1  0
 10 20  1  0
M  END
>  <filename_input>  (25) 
8AUH_L9I_docked.sdf

>  <pdb_id>  (25) 
8AUH_L9I

>  <pose_rank>  (25) 
24

>  <num_atoms_heavy>  (25) 
11

>  <num_torsions>  (25) 
4

>  <pose>  (25) 
[16.707953434484846, 14.323152185074116, -26.780090232829842, -0.4289039455282971, 0.2797528154690971, 2.732455129506493, -11.990884251414437, -3.2528268534655336, -0.018499773946323038, 1.3350643704320664]

>  <energy>  (25) 
-313.66187962859664

>  <inter_energy>  (25) 
-319.2640792054391

>  <intra_energy>  (25) 
1.0240296383925365

>  <rmsd>  (25) 
4.61249

>  <sdf_rank>  (25) 
0

$$$$

     RDKit          3D

 20 19  0  0  0  0  0  0  0  0999 V2000
   19.2370   18.4530  -25.8950 N   0  0  0  0  0  0  0  0  0  0  0  0
   17.3980   17.6770  -27.2170 C   0  0  0  0  0  0  0  0  0  0  0  0
   16.9580   16.7490  -27.8140 O   0  0  0  0  0  0  0  0  0  0  0  0
   19.2000   16.0560  -26.3100 C   0  0  0  0  0  0  0  0  0  0  0  0
   20.1520   14.2730  -27.4920 C   0  0  0  0  0  0  0  0  0  0  0  0
   20.6310   13.9780  -28.9100 C   0  0  0  0  0  0  0  0  0  0  0  0
   16.7490   19.0540  -27.2640 C   0  0  0  0  0  0  0  0  0  0  0  0
   18.6570   17.4710  -26.4100 C   0  0  0  0  0  0  0  0  0  0  0  0
   20.0280   15.6600  -27.3450 O   0  0  0  0  0  0  0  0  0  0  0  0
   20.4090   18.2340  -25.1820 O   0  0  0  0  0  0  0  0  0  0  0  0
   18.9240   15.3040  -25.4260 O   0  0  0  0  0  0  0  0  0  0  0  0
   19.1769   13.7931  -27.3223 H   0  0  0  0  0  0  0  0  0  0  0  0
   20.8732   13.8792  -26.7607 H   0  0  0  0  0  0  0  0  0  0  0  0
   21.5670   13.4016  -28.8684 H   0  0  0  0  0  0  0  0  0  0  0  0
   19.8647   13.3951  -29.4421 H   0  0  0  0  0  0  0  0  0  0  0  0
   20.8067   14.9246  -29.4421 H   0  0  0  0  0  0  0  0  0  0  0  0
   16.5791   19.4145  -26.2387 H   0  0  0  0  0  0  0  0  0  0  0  0
   17.4120   19.7540  -27.7936 H   0  0  0  0  0  0  0  0  0  0  0  0
   15.7871   18.9881  -27.7936 H   0  0  0  0  0  0  0  0  0  0  0  0
   20.8850   18.9959  -24.7659 H   0  0  0  0  0  0  0  0  0  0  0  0
  1  8  2  3
  1 10  1  0
  2  3  2  0
  2  7  1  0
  2  8  1  0
  4  8  1  0
  4  9  1  0
  4 11  2  0
  5  6  1  0
  5  9  1  0
  5 12  1  0
  5 13  1  0
  6 14  1  0
  6 15  1  0
  6 16  1  0
  7 17  1  0
  7 18  1  0
  7 19  1  0
 10 20  1  0
M  END
>  <filename_input>  (26) 
8AUH_L9I_docked.sdf

>  <pdb_id>  (26) 
8AUH_L9I

>  <pose_rank>  (26) 
25

>  <num_atoms_heavy>  (26) 
11

>  <num_torsions>  (26) 
4

>  <pose>  (26) 
[19.237, 18.453, -25.895, 1e-06, 1e-06, 1e-06, 0.0, 0.0, 0.0, 0.0]

>  <energy>  (26) 
-451.85401991310016

>  <inter_energy>  (26) 
-448.9740802317926

>  <intra_energy>  (26) 
0.7021609188673816

>  <rmsd>  (26) 
0.0

>  <sdf_rank>  (26) 
0

$$$$
