
     RDKit          3D

 45 47  0  0  0  0  0  0  0  0999 V2000
   -0.8264    5.7687   31.0193 C   0  0  0  0  0  0  0  0  0  0  0  0
    2.5763    7.6525   29.3957 N   0  0  0  0  0  0  0  0  0  0  0  0
    0.2203    7.7121   30.0416 C   0  0  0  0  0  0  0  0  0  0  0  0
    1.4351    7.0381   29.9632 C   0  0  0  0  0  0  0  0  0  0  0  0
    1.5334    5.7163   30.4393 C   0  0  0  0  0  0  0  0  0  0  0  0
    0.3909    5.1028   30.9636 C   0  0  0  0  0  0  0  0  0  0  0  0
    2.8213    5.0545   30.3477 C   0  0  0  0  0  0  0  0  0  0  0  0
    2.4711    8.9935   28.7975 C   0  0  0  0  0  0  0  0  0  0  0  0
   -2.0665    5.0711   31.5248 C   0  0  0  0  0  0  0  0  0  0  0  0
    2.1402    6.4668   34.8092 C   0  0  0  0  0  0  0  0  0  0  0  0
    2.9843    3.6450   30.8401 C   0  0  0  0  0  0  0  0  0  0  0  0
    0.1524    5.1930   34.3898 C   0  0  0  0  0  0  0  0  0  0  0  0
    0.7743    6.4129   34.6344 C   0  0  0  0  0  0  0  0  0  0  0  0
    2.8962    5.3130   34.7375 C   0  0  0  0  0  0  0  0  0  0  0  0
    2.2836    4.0971   34.4908 C   0  0  0  0  0  0  0  0  0  0  0  0
    0.9170    4.0344   34.3158 C   0  0  0  0  0  0  0  0  0  0  0  0
    2.8158   10.0664   29.7965 C   0  0  0  0  0  0  0  0  0  0  0  0
   -0.8938    7.0768   30.5635 C   0  0  0  0  0  0  0  0  0  0  0  0
    3.8592    5.7234   29.8137 C   0  0  0  0  0  0  0  0  0  0  0  0
    3.8094    7.0398   29.3168 C   0  0  0  0  0  0  0  0  0  0  0  0
   -1.8791    4.3494   32.7974 N   0  0  0  0  0  0  0  0  0  0  0  0
   -2.0514    6.4618   34.0094 O   0  0  0  0  0  0  0  0  0  0  0  0
   -2.1179    4.3211   35.2322 O   0  0  0  0  0  0  0  0  0  0  0  0
    4.7756    7.6466   28.8615 O   0  0  0  0  0  0  0  0  0  0  0  0
   -1.5753    5.1219   34.1801 S   0  0  2  0  0  0  0  0  0  0  0  0
    0.1449    8.7511   29.6885 H   0  0  0  0  0  0  0  0  0  0  0  0
    0.4582    4.0712   31.3397 H   0  0  0  0  0  0  0  0  0  0  0  0
    3.1635    9.0612   27.9455 H   0  0  0  0  0  0  0  0  0  0  0  0
    1.4328    9.1463   28.4678 H   0  0  0  0  0  0  0  0  0  0  0  0
   -2.8525    5.8269   31.6696 H   0  0  0  0  0  0  0  0  0  0  0  0
   -2.3338    4.3165   30.7704 H   0  0  0  0  0  0  0  0  0  0  0  0
    2.6300    7.4318   35.0063 H   0  0  0  0  0  0  0  0  0  0  0  0
    2.9850    3.6388   31.9401 H   0  0  0  0  0  0  0  0  0  0  0  0
    2.1514    3.0288   30.4705 H   0  0  0  0  0  0  0  0  0  0  0  0
    3.9358    3.2352   30.4705 H   0  0  0  0  0  0  0  0  0  0  0  0
    0.1760    7.3344   34.6884 H   0  0  0  0  0  0  0  0  0  0  0  0
    3.9863    5.3608   34.8768 H   0  0  0  0  0  0  0  0  0  0  0  0
    2.8873    3.1793   34.4341 H   0  0  0  0  0  0  0  0  0  0  0  0
    0.4319    3.0673   34.1176 H   0  0  0  0  0  0  0  0  0  0  0  0
    2.6893    9.6727   30.8158 H   0  0  0  0  0  0  0  0  0  0  0  0
    3.8601   10.3804   29.6517 H   0  0  0  0  0  0  0  0  0  0  0  0
    2.1499   10.9299   29.6517 H   0  0  0  0  0  0  0  0  0  0  0  0
   -1.8493    7.6192   30.6175 H   0  0  0  0  0  0  0  0  0  0  0  0
    4.8250    5.1995   29.7611 H   0  0  0  0  0  0  0  0  0  0  0  0
   -2.7422    3.8091   32.9525 H   0  0  0  0  0  0  0  0  0  0  0  0
  1  6  1  0
  1  9  1  0
  1 18  2  0
  2  4  1  0
  2  8  1  0
  2 20  1  0
  3  4  2  0
  3 18  1  0
  4  5  1  0
  5  6  2  0
  5  7  1  0
  7 11  1  0
  7 19  2  0
  8 17  1  0
  9 21  1  0
 10 13  2  0
 10 14  1  0
 12 13  1  0
 12 16  2  0
 12 25  1  0
 14 15  2  0
 15 16  1  0
 19 20  1  0
 20 24  2  0
 25 21  1  6
 22 25  2  0
 23 25  2  0
  3 26  1  0
  6 27  1  0
  8 28  1  0
  8 29  1  0
  9 30  1  0
  9 31  1  0
 10 32  1  0
 11 33  1  0
 11 34  1  0
 11 35  1  0
 13 36  1  0
 14 37  1  0
 15 38  1  0
 16 39  1  0
 17 40  1  0
 17 41  1  0
 17 42  1  0
 18 43  1  0
 19 44  1  0
 21 45  1  0
M  END
>  <filename_input>  (1) 
8AY3_OE3_docked.sdf

>  <pdb_id>  (1) 
8AY3_OE3

>  <pose_rank>  (1) 
0

>  <num_atoms_heavy>  (1) 
25

>  <num_torsions>  (1) 
5

>  <pose>  (1) 
[-0.8263819834908602, 5.76865177982054, 31.019349744045225, -0.04750896446211807, -0.018469081608081972, 0.011582460667937604, 0.1645588294293, -0.19593064078864209, 0.08304868528224037, -0.14520161371429327, -2.8769873315381007]

>  <energy>  (1) 
-799.3518878154057

>  <inter_energy>  (1) 
-798.8455205266863

>  <intra_energy>  (1) 
16.862213956652756

>  <rmsd>  (1) 
0.453847

>  <sdf_rank>  (1) 
0

$$$$

     RDKit          3D

 45 47  0  0  0  0  0  0  0  0999 V2000
    1.5167    5.7213   34.1750 C   0  0  0  0  0  0  0  0  0  0  0  0
    3.3510    7.5030   30.8246 N   0  0  0  0  0  0  0  0  0  0  0  0
    2.2307    7.6984   32.9876 C   0  0  0  0  0  0  0  0  0  0  0  0
    2.7569    6.9141   31.9658 C   0  0  0  0  0  0  0  0  0  0  0  0
    2.6856    5.5103   32.0544 C   0  0  0  0  0  0  0  0  0  0  0  0
    2.0625    4.9367   33.1676 C   0  0  0  0  0  0  0  0  0  0  0  0
    3.2560    4.7307   30.9718 C   0  0  0  0  0  0  0  0  0  0  0  0
    3.3432    8.9660   30.6613 C   0  0  0  0  0  0  0  0  0  0  0  0
    0.7873    5.0902   35.3367 C   0  0  0  0  0  0  0  0  0  0  0  0
   -1.2852    4.6086   30.6002 C   0  0  0  0  0  0  0  0  0  0  0  0
    3.2086    3.2302   31.0135 C   0  0  0  0  0  0  0  0  0  0  0  0
   -1.6678    5.5498   32.7722 C   0  0  0  0  0  0  0  0  0  0  0  0
   -1.3544    4.4587   31.9684 C   0  0  0  0  0  0  0  0  0  0  0  0
   -1.5216    5.8412   30.0231 C   0  0  0  0  0  0  0  0  0  0  0  0
   -1.8301    6.9310   30.8180 C   0  0  0  0  0  0  0  0  0  0  0  0
   -1.9023    6.7891   32.1879 C   0  0  0  0  0  0  0  0  0  0  0  0
    2.1012    9.4297   29.9467 C   0  0  0  0  0  0  0  0  0  0  0  0
    1.6173    7.1010   34.0758 C   0  0  0  0  0  0  0  0  0  0  0  0
    3.8221    5.3748   29.9352 C   0  0  0  0  0  0  0  0  0  0  0  0
    3.9100    6.7732   29.7965 C   0  0  0  0  0  0  0  0  0  0  0  0
   -0.5049    4.4758   34.9787 N   0  0  0  0  0  0  0  0  0  0  0  0
   -2.9366    4.5852   34.7899 O   0  0  0  0  0  0  0  0  0  0  0  0
   -1.6224    6.6490   35.0989 O   0  0  0  0  0  0  0  0  0  0  0  0
    4.4593    7.3441   28.8577 O   0  0  0  0  0  0  0  0  0  0  0  0
   -1.7668    5.3591   34.5008 S   0  0  2  0  0  0  0  0  0  0  0  0
    2.3020    8.7946   32.9307 H   0  0  0  0  0  0  0  0  0  0  0  0
    2.0036    3.8411   33.2467 H   0  0  0  0  0  0  0  0  0  0  0  0
    3.3826    9.4377   31.6543 H   0  0  0  0  0  0  0  0  0  0  0  0
    4.2180    9.2531   30.0594 H   0  0  0  0  0  0  0  0  0  0  0  0
    1.4328    4.3100   35.7663 H   0  0  0  0  0  0  0  0  0  0  0  0
    0.5657    5.8999   36.0476 H   0  0  0  0  0  0  0  0  0  0  0  0
   -1.0411    3.7439   29.9656 H   0  0  0  0  0  0  0  0  0  0  0  0
    3.1980    2.8926   32.0604 H   0  0  0  0  0  0  0  0  0  0  0  0
    2.2989    2.8778   30.5053 H   0  0  0  0  0  0  0  0  0  0  0  0
    4.0943    2.8211   30.5053 H   0  0  0  0  0  0  0  0  0  0  0  0
   -1.1619    3.4765   32.4246 H   0  0  0  0  0  0  0  0  0  0  0  0
   -1.4644    5.9565   28.9307 H   0  0  0  0  0  0  0  0  0  0  0  0
   -2.0180    7.9117   30.3566 H   0  0  0  0  0  0  0  0  0  0  0  0
   -2.1456    7.6571   32.8184 H   0  0  0  0  0  0  0  0  0  0  0  0
    1.3378    9.7147   30.6856 H   0  0  0  0  0  0  0  0  0  0  0  0
    2.3435   10.2980   29.3162 H   0  0  0  0  0  0  0  0  0  0  0  0
    1.7152    8.6151   29.3162 H   0  0  0  0  0  0  0  0  0  0  0  0
    1.2026    7.7319   34.8758 H   0  0  0  0  0  0  0  0  0  0  0  0
    4.2510    4.7592   29.1309 H   0  0  0  0  0  0  0  0  0  0  0  0
   -0.3081    3.8158   34.2129 H   0  0  0  0  0  0  0  0  0  0  0  0
  1  6  1  0
  1  9  1  0
  1 18  2  0
  2  4  1  0
  2  8  1  0
  2 20  1  0
  3  4  2  0
  3 18  1  0
  4  5  1  0
  5  6  2  0
  5  7  1  0
  7 11  1  0
  7 19  2  0
  8 17  1  0
  9 21  1  0
 10 13  2  0
 10 14  1  0
 12 13  1  0
 12 16  2  0
 12 25  1  0
 14 15  2  0
 15 16  1  0
 19 20  1  0
 20 24  2  0
 25 21  1  1
 22 25  2  0
 23 25  2  0
  3 26  1  0
  6 27  1  0
  8 28  1  0
  8 29  1  0
  9 30  1  0
  9 31  1  0
 10 32  1  0
 11 33  1  0
 11 34  1  0
 11 35  1  0
 13 36  1  0
 14 37  1  0
 15 38  1  0
 16 39  1  0
 17 40  1  0
 17 41  1  0
 17 42  1  0
 18 43  1  0
 19 44  1  0
 21 45  1  0
M  END
>  <filename_input>  (2) 
8AY3_OE3_docked.sdf

>  <pdb_id>  (2) 
8AY3_OE3

>  <pose_rank>  (2) 
1

>  <num_atoms_heavy>  (2) 
25

>  <num_torsions>  (2) 
5

>  <pose>  (2) 
[1.5167358959007724, 5.721332329259792, 34.17496224458503, -1.3732696217887885, -5.0015355204771375, 1.6190219330038393, 3.270171263546507, -8.530398078354407, -8.541681502581147, -3.252463462681146, -4.328184071626686]

>  <energy>  (2) 
-761.4650286458539

>  <inter_energy>  (2) 
-751.5049974230296

>  <intra_energy>  (2) 
10.714830050282886

>  <rmsd>  (2) 
2.98887

>  <sdf_rank>  (2) 
0

$$$$

     RDKit          3D

 45 47  0  0  0  0  0  0  0  0999 V2000
   -0.5210    6.1055   30.9122 C   0  0  0  0  0  0  0  0  0  0  0  0
    3.5789    5.7578   29.9993 N   0  0  0  0  0  0  0  0  0  0  0  0
    1.4256    4.7303   30.5275 C   0  0  0  0  0  0  0  0  0  0  0  0
    2.1962    5.8622   30.2805 C   0  0  0  0  0  0  0  0  0  0  0  0
    1.6001    7.1375   30.3262 C   0  0  0  0  0  0  0  0  0  0  0  0
    0.2412    7.2346   30.6428 C   0  0  0  0  0  0  0  0  0  0  0  0
    2.4380    8.2899   30.0522 C   0  0  0  0  0  0  0  0  0  0  0  0
    4.2445    4.4456   30.0492 C   0  0  0  0  0  0  0  0  0  0  0  0
   -1.9698    6.2300   31.3191 C   0  0  0  0  0  0  0  0  0  0  0  0
    1.6542    6.7140   34.6679 C   0  0  0  0  0  0  0  0  0  0  0  0
    1.8557    9.6739   30.0867 C   0  0  0  0  0  0  0  0  0  0  0  0
   -0.4692    5.6483   34.3430 C   0  0  0  0  0  0  0  0  0  0  0  0
    0.3127    6.7986   34.3642 C   0  0  0  0  0  0  0  0  0  0  0  0
    2.2278    5.4888   34.9471 C   0  0  0  0  0  0  0  0  0  0  0  0
    1.4558    4.3407   34.9239 C   0  0  0  0  0  0  0  0  0  0  0  0
    0.1123    4.4169   34.6220 C   0  0  0  0  0  0  0  0  0  0  0  0
    3.6653    3.5800   31.1371 C   0  0  0  0  0  0  0  0  0  0  0  0
    0.0831    4.8591   30.8410 C   0  0  0  0  0  0  0  0  0  0  0  0
    3.7391    8.0954   29.7711 C   0  0  0  0  0  0  0  0  0  0  0  0
    4.3825    6.8440   29.7223 C   0  0  0  0  0  0  0  0  0  0  0  0
   -2.3668    5.3389   32.4253 N   0  0  0  0  0  0  0  0  0  0  0  0
   -2.5525    7.1309   34.0730 O   0  0  0  0  0  0  0  0  0  0  0  0
   -2.8568    4.7810   34.7566 O   0  0  0  0  0  0  0  0  0  0  0  0
    5.5652    6.6827   29.4323 O   0  0  0  0  0  0  0  0  0  0  0  0
   -2.1674    5.7554   33.9705 S   0  0  2  0  0  0  0  0  0  0  0  0
    1.8836    3.7316   30.4736 H   0  0  0  0  0  0  0  0  0  0  0  0
   -0.2338    8.2261   30.6790 H   0  0  0  0  0  0  0  0  0  0  0  0
    4.1135    3.9402   29.0811 H   0  0  0  0  0  0  0  0  0  0  0  0
    5.3116    4.6053   30.2634 H   0  0  0  0  0  0  0  0  0  0  0  0
   -2.1523    7.2690   31.6308 H   0  0  0  0  0  0  0  0  0  0  0  0
   -2.5695    5.9351   30.4454 H   0  0  0  0  0  0  0  0  0  0  0  0
    2.2703    7.6251   34.6880 H   0  0  0  0  0  0  0  0  0  0  0  0
    1.7227    9.9898   31.1319 H   0  0  0  0  0  0  0  0  0  0  0  0
    2.5367   10.3710   29.5767 H   0  0  0  0  0  0  0  0  0  0  0  0
    0.8810    9.6744   29.5767 H   0  0  0  0  0  0  0  0  0  0  0  0
   -0.1398    7.7755   34.1387 H   0  0  0  0  0  0  0  0  0  0  0  0
    3.2992    5.4258   35.1882 H   0  0  0  0  0  0  0  0  0  0  0  0
    1.9143    3.3659   35.1466 H   0  0  0  0  0  0  0  0  0  0  0  0
   -0.4994    3.5029   34.6018 H   0  0  0  0  0  0  0  0  0  0  0  0
    3.9408    3.9918   32.1191 H   0  0  0  0  0  0  0  0  0  0  0  0
    2.5695    3.5574   31.0433 H   0  0  0  0  0  0  0  0  0  0  0  0
    4.0625    2.5585   31.0433 H   0  0  0  0  0  0  0  0  0  0  0  0
   -0.5150    3.9569   31.0370 H   0  0  0  0  0  0  0  0  0  0  0  0
    4.3499    8.9861   29.5625 H   0  0  0  0  0  0  0  0  0  0  0  0
   -3.3734    5.1580   32.3029 H   0  0  0  0  0  0  0  0  0  0  0  0
  1  6  1  0
  1  9  1  0
  1 18  2  0
  2  4  1  0
  2  8  1  0
  2 20  1  0
  3  4  2  0
  3 18  1  0
  4  5  1  0
  5  6  2  0
  5  7  1  0
  7 11  1  0
  7 19  2  0
  8 17  1  0
  9 21  1  0
 10 13  2  0
 10 14  1  0
 12 13  1  0
 12 16  2  0
 12 25  1  0
 14 15  2  0
 15 16  1  0
 19 20  1  0
 20 24  2  0
 25 21  1  6
 22 25  2  0
 23 25  2  0
  3 26  1  0
  6 27  1  0
  8 28  1  0
  8 29  1  0
  9 30  1  0
  9 31  1  0
 10 32  1  0
 11 33  1  0
 11 34  1  0
 11 35  1  0
 13 36  1  0
 14 37  1  0
 15 38  1  0
 16 39  1  0
 17 40  1  0
 17 41  1  0
 17 42  1  0
 18 43  1  0
 19 44  1  0
 21 45  1  0
M  END
>  <filename_input>  (3) 
8AY3_OE3_docked.sdf

>  <pdb_id>  (3) 
8AY3_OE3

>  <pose_rank>  (3) 
2

>  <num_atoms_heavy>  (3) 
25

>  <num_torsions>  (3) 
5

>  <pose>  (3) 
[-0.520986615537408, 6.105498795201635, 30.912243758458846, -2.740475233002945, -0.604385573623949, 0.8206656664609623, -2.0783307201954075, 15.417393973836475, 6.7002178855749275, 31.615374227131756, 2.927475248169113]

>  <energy>  (3) 
-711.11409847215

>  <inter_energy>  (3) 
-753.4989706944085

>  <intra_energy>  (3) 
49.24012517830864

>  <rmsd>  (3) 
2.57865

>  <sdf_rank>  (3) 
0

$$$$

     RDKit          3D

 45 47  0  0  0  0  0  0  0  0999 V2000
    2.1522    7.8511   32.2174 C   0  0  0  0  0  0  0  0  0  0  0  0
   -0.5389    5.4766   34.4273 N   0  0  0  0  0  0  0  0  0  0  0  0
    1.6594    6.5110   34.1642 C   0  0  0  0  0  0  0  0  0  0  0  0
    0.3635    6.2937   33.7062 C   0  0  0  0  0  0  0  0  0  0  0  0
   -0.0582    6.8798   32.4970 C   0  0  0  0  0  0  0  0  0  0  0  0
    0.8521    7.6547   31.7708 C   0  0  0  0  0  0  0  0  0  0  0  0
   -1.4206    6.6356   32.0618 C   0  0  0  0  0  0  0  0  0  0  0  0
   -0.0882    4.7700   35.6375 C   0  0  0  0  0  0  0  0  0  0  0  0
    3.1439    8.6332   31.3898 C   0  0  0  0  0  0  0  0  0  0  0  0
    3.4239    3.3120   31.3247 C   0  0  0  0  0  0  0  0  0  0  0  0
   -1.9245    7.2357   30.7805 C   0  0  0  0  0  0  0  0  0  0  0  0
    3.2687    5.3800   30.1208 C   0  0  0  0  0  0  0  0  0  0  0  0
    4.0116    4.4718   30.8679 C   0  0  0  0  0  0  0  0  0  0  0  0
    2.0991    3.0449   31.0391 C   0  0  0  0  0  0  0  0  0  0  0  0
    1.3562    3.9428   30.2931 C   0  0  0  0  0  0  0  0  0  0  0  0
    1.9365    5.1062   29.8332 C   0  0  0  0  0  0  0  0  0  0  0  0
    0.1635    5.7308   36.7697 C   0  0  0  0  0  0  0  0  0  0  0  0
    2.5384    7.2809   33.4212 C   0  0  0  0  0  0  0  0  0  0  0  0
   -2.2174    5.8636   32.8227 C   0  0  0  0  0  0  0  0  0  0  0  0
   -1.8406    5.2492   34.0321 C   0  0  0  0  0  0  0  0  0  0  0  0
    4.2351    7.8187   30.8229 N   0  0  0  0  0  0  0  0  0  0  0  0
    3.0649    7.5146   28.7018 O   0  0  0  0  0  0  0  0  0  0  0  0
    5.3007    6.5293   29.0374 O   0  0  0  0  0  0  0  0  0  0  0  0
   -2.5917    4.5732   34.7305 O   0  0  0  0  0  0  0  0  0  0  0  0
    4.0071    6.8517   29.5526 S   0  0  2  0  0  0  0  0  0  0  0  0
    1.9859    6.0706   35.1178 H   0  0  0  0  0  0  0  0  0  0  0  0
    0.5314    8.1183   30.8262 H   0  0  0  0  0  0  0  0  0  0  0  0
   -0.8632    4.0516   35.9427 H   0  0  0  0  0  0  0  0  0  0  0  0
    0.8538    4.2511   35.4064 H   0  0  0  0  0  0  0  0  0  0  0  0
    2.6011    9.1083   30.5594 H   0  0  0  0  0  0  0  0  0  0  0  0
    3.6132    9.3630   32.0659 H   0  0  0  0  0  0  0  0  0  0  0  0
    4.0117    2.5967   31.9186 H   0  0  0  0  0  0  0  0  0  0  0  0
   -2.6165    8.0597   31.0088 H   0  0  0  0  0  0  0  0  0  0  0  0
   -1.0753    7.6210   30.1972 H   0  0  0  0  0  0  0  0  0  0  0  0
   -2.4509    6.4658   30.1972 H   0  0  0  0  0  0  0  0  0  0  0  0
    5.0679    4.6794   31.0941 H   0  0  0  0  0  0  0  0  0  0  0  0
    1.6343    2.1175   31.4050 H   0  0  0  0  0  0  0  0  0  0  0  0
    0.3013    3.7283   30.0667 H   0  0  0  0  0  0  0  0  0  0  0  0
    1.3450    5.8179   29.2385 H   0  0  0  0  0  0  0  0  0  0  0  0
    0.0272    5.2106   37.7292 H   0  0  0  0  0  0  0  0  0  0  0  0
    1.1924    6.1142   36.7033 H   0  0  0  0  0  0  0  0  0  0  0  0
   -0.5452    6.5694   36.7033 H   0  0  0  0  0  0  0  0  0  0  0  0
    3.5611    7.4431   33.7924 H   0  0  0  0  0  0  0  0  0  0  0  0
   -3.2468    5.6992   32.4715 H   0  0  0  0  0  0  0  0  0  0  0  0
    4.9778    8.4793   30.5530 H   0  0  0  0  0  0  0  0  0  0  0  0
  1  6  1  0
  1  9  1  0
  1 18  2  0
  2  4  1  0
  2  8  1  0
  2 20  1  0
  3  4  2  0
  3 18  1  0
  4  5  1  0
  5  6  2  0
  5  7  1  0
  7 11  1  0
  7 19  2  0
  8 17  1  0
  9 21  1  0
 10 13  2  0
 10 14  1  0
 12 13  1  0
 12 16  2  0
 12 25  1  0
 14 15  2  0
 15 16  1  0
 19 20  1  0
 20 24  2  0
 25 21  1  1
 22 25  2  0
 23 25  2  0
  3 26  1  0
  6 27  1  0
  8 28  1  0
  8 29  1  0
  9 30  1  0
  9 31  1  0
 10 32  1  0
 11 33  1  0
 11 34  1  0
 11 35  1  0
 13 36  1  0
 14 37  1  0
 15 38  1  0
 16 39  1  0
 17 40  1  0
 17 41  1  0
 17 42  1  0
 18 43  1  0
 19 44  1  0
 21 45  1  0
M  END
>  <filename_input>  (4) 
8AY3_OE3_docked.sdf

>  <pdb_id>  (4) 
8AY3_OE3

>  <pose_rank>  (4) 
3

>  <num_atoms_heavy>  (4) 
25

>  <num_torsions>  (4) 
5

>  <pose>  (4) 
[2.152197567265203, 7.8511447092411615, 32.21743223022718, 0.07154114079135987, 2.18654837313888, 2.5822861378051245, 6.044293321056379, 9.590674760804028, 6.526612604472434, 0.08176358619763399, -0.06451516602707635]

>  <energy>  (4) 
-705.2361863594311

>  <inter_energy>  (4) 
-722.7387196567001

>  <intra_energy>  (4) 
25.013483164214353

>  <rmsd>  (4) 
6.20956

>  <sdf_rank>  (4) 
0

$$$$

     RDKit          3D

 45 47  0  0  0  0  0  0  0  0999 V2000
    2.6768    4.4083   31.6156 C   0  0  0  0  0  0  0  0  0  0  0  0
   -0.9625    5.7619   33.2547 N   0  0  0  0  0  0  0  0  0  0  0  0
    0.2722    4.5903   31.5013 C   0  0  0  0  0  0  0  0  0  0  0  0
    0.2511    5.2804   32.7094 C   0  0  0  0  0  0  0  0  0  0  0  0
    1.4557    5.5218   33.3979 C   0  0  0  0  0  0  0  0  0  0  0  0
    2.6552    5.0760   32.8330 C   0  0  0  0  0  0  0  0  0  0  0  0
    1.3868    6.2358   34.6591 C   0  0  0  0  0  0  0  0  0  0  0  0
   -2.2192    5.6132   32.5026 C   0  0  0  0  0  0  0  0  0  0  0  0
    3.9845    3.9932   30.9850 C   0  0  0  0  0  0  0  0  0  0  0  0
    1.2631    8.3612   29.7219 C   0  0  0  0  0  0  0  0  0  0  0  0
    2.6399    6.5208   35.4365 C   0  0  0  0  0  0  0  0  0  0  0  0
    3.4100    7.2992   29.8358 C   0  0  0  0  0  0  0  0  0  0  0  0
    2.1292    7.3763   29.2987 C   0  0  0  0  0  0  0  0  0  0  0  0
    1.6640    9.2766   30.6755 C   0  0  0  0  0  0  0  0  0  0  0  0
    2.9382    9.2071   31.2106 C   0  0  0  0  0  0  0  0  0  0  0  0
    3.8106    8.2239   30.7933 C   0  0  0  0  0  0  0  0  0  0  0  0
   -2.8508    4.2692   32.7537 C   0  0  0  0  0  0  0  0  0  0  0  0
    1.4760    4.1640   30.9661 C   0  0  0  0  0  0  0  0  0  0  0  0
    0.1861    6.6372   35.1139 C   0  0  0  0  0  0  0  0  0  0  0  0
   -1.0429    6.4283   34.4595 C   0  0  0  0  0  0  0  0  0  0  0  0
    4.8474    5.1197   30.5828 N   0  0  0  0  0  0  0  0  0  0  0  0
    5.7291    6.6733   28.9186 O   0  0  0  0  0  0  0  0  0  0  0  0
    3.8116    5.2231   28.3687 O   0  0  0  0  0  0  0  0  0  0  0  0
   -2.1340    6.7741   34.9055 O   0  0  0  0  0  0  0  0  0  0  0  0
    4.5017    6.0478   29.3101 S   0  0  2  0  0  0  0  0  0  0  0  0
   -0.6688    4.3832   30.9706 H   0  0  0  0  0  0  0  0  0  0  0  0
    3.6010    5.2581   33.3642 H   0  0  0  0  0  0  0  0  0  0  0  0
   -2.9192    6.4022   32.8147 H   0  0  0  0  0  0  0  0  0  0  0  0
   -1.9935    5.6958   31.4291 H   0  0  0  0  0  0  0  0  0  0  0  0
    4.5368    3.3775   31.7101 H   0  0  0  0  0  0  0  0  0  0  0  0
    3.7315    3.4453   30.0652 H   0  0  0  0  0  0  0  0  0  0  0  0
    0.2493    8.4185   29.2989 H   0  0  0  0  0  0  0  0  0  0  0  0
    2.4223    6.4713   36.5136 H   0  0  0  0  0  0  0  0  0  0  0  0
    3.4067    5.7741   35.1826 H   0  0  0  0  0  0  0  0  0  0  0  0
    3.0083    7.5257   35.1826 H   0  0  0  0  0  0  0  0  0  0  0  0
    1.8078    6.6514   28.5364 H   0  0  0  0  0  0  0  0  0  0  0  0
    0.9698   10.0616   31.0097 H   0  0  0  0  0  0  0  0  0  0  0  0
    3.2556    9.9370   31.9699 H   0  0  0  0  0  0  0  0  0  0  0  0
    4.8238    8.1715   31.2182 H   0  0  0  0  0  0  0  0  0  0  0  0
   -2.9310    4.0986   33.8375 H   0  0  0  0  0  0  0  0  0  0  0  0
   -3.8542    4.2458   32.3036 H   0  0  0  0  0  0  0  0  0  0  0  0
   -2.2286    3.4817   32.3036 H   0  0  0  0  0  0  0  0  0  0  0  0
    1.4800    3.6220   30.0089 H   0  0  0  0  0  0  0  0  0  0  0  0
    0.1626    7.1720   36.0749 H   0  0  0  0  0  0  0  0  0  0  0  0
    4.8955    5.7507   31.3955 H   0  0  0  0  0  0  0  0  0  0  0  0
  1  6  1  0
  1  9  1  0
  1 18  2  0
  2  4  1  0
  2  8  1  0
  2 20  1  0
  3  4  2  0
  3 18  1  0
  4  5  1  0
  5  6  2  0
  5  7  1  0
  7 11  1  0
  7 19  2  0
  8 17  1  0
  9 21  1  0
 10 13  2  0
 10 14  1  0
 12 13  1  0
 12 16  2  0
 12 25  1  0
 14 15  2  0
 15 16  1  0
 19 20  1  0
 20 24  2  0
 25 21  1  1
 22 25  2  0
 23 25  2  0
  3 26  1  0
  6 27  1  0
  8 28  1  0
  8 29  1  0
  9 30  1  0
  9 31  1  0
 10 32  1  0
 11 33  1  0
 11 34  1  0
 11 35  1  0
 13 36  1  0
 14 37  1  0
 15 38  1  0
 16 39  1  0
 17 40  1  0
 17 41  1  0
 17 42  1  0
 18 43  1  0
 19 44  1  0
 21 45  1  0
M  END
>  <filename_input>  (5) 
8AY3_OE3_docked.sdf

>  <pdb_id>  (5) 
8AY3_OE3

>  <pose_rank>  (5) 
4

>  <num_atoms_heavy>  (5) 
25

>  <num_torsions>  (5) 
5

>  <pose>  (5) 
[2.676833083428171, 4.408313087537038, 31.615569730819313, -1.5697937962947839, 1.6495391783263147, -3.12395667776976, 0.0309696781733403, 4.1078775125452, -2.3473832000493626, 2.973881567580117, -0.8669754984214809]

>  <energy>  (5) 
-665.0466454459014

>  <inter_energy>  (5) 
-685.1870480526061

>  <intra_energy>  (5) 
10.536310419459054

>  <rmsd>  (5) 
6.15607

>  <sdf_rank>  (5) 
0

$$$$

     RDKit          3D

 45 47  0  0  0  0  0  0  0  0999 V2000
    0.7391    8.2935   31.1496 C   0  0  0  0  0  0  0  0  0  0  0  0
   -1.0813    5.5487   33.7794 N   0  0  0  0  0  0  0  0  0  0  0  0
   -1.1755    6.9722   31.7953 C   0  0  0  0  0  0  0  0  0  0  0  0
   -0.4709    6.4502   32.8758 C   0  0  0  0  0  0  0  0  0  0  0  0
    0.8672    6.8343   33.0892 C   0  0  0  0  0  0  0  0  0  0  0  0
    1.4512    7.7555   32.2135 C   0  0  0  0  0  0  0  0  0  0  0  0
    1.5677    6.2581   34.2216 C   0  0  0  0  0  0  0  0  0  0  0  0
   -2.5079    5.2145   33.6368 C   0  0  0  0  0  0  0  0  0  0  0  0
    1.3602    9.3378   30.2531 C   0  0  0  0  0  0  0  0  0  0  0  0
    3.0652    4.1760   31.2704 C   0  0  0  0  0  0  0  0  0  0  0  0
    2.9961    6.6313   34.4972 C   0  0  0  0  0  0  0  0  0  0  0  0
    2.9472    6.2790   30.1242 C   0  0  0  0  0  0  0  0  0  0  0  0
    3.5781    5.4323   31.0298 C   0  0  0  0  0  0  0  0  0  0  0  0
    1.9278    3.7517   30.6113 C   0  0  0  0  0  0  0  0  0  0  0  0
    1.2981    4.5881   29.7066 C   0  0  0  0  0  0  0  0  0  0  0  0
    1.8044    5.8472   29.4610 C   0  0  0  0  0  0  0  0  0  0  0  0
   -2.7702    4.4741   32.3518 C   0  0  0  0  0  0  0  0  0  0  0  0
   -0.5706    7.8845   30.9474 C   0  0  0  0  0  0  0  0  0  0  0  0
    0.9154    5.3904   35.0163 C   0  0  0  0  0  0  0  0  0  0  0  0
   -0.4218    4.9825   34.8503 C   0  0  0  0  0  0  0  0  0  0  0  0
    2.3778    8.8109   29.3244 N   0  0  0  0  0  0  0  0  0  0  0  0
    4.5094    7.7764   28.7355 O   0  0  0  0  0  0  0  0  0  0  0  0
    4.0405    8.4069   31.0732 O   0  0  0  0  0  0  0  0  0  0  0  0
   -0.9918    4.1642   35.5675 O   0  0  0  0  0  0  0  0  0  0  0  0
    3.5880    7.8713   29.8278 S   0  0  2  0  0  0  0  0  0  0  0  0
   -2.2145    6.6595   31.6146 H   0  0  0  0  0  0  0  0  0  0  0  0
    2.4964    8.0602   32.3709 H   0  0  0  0  0  0  0  0  0  0  0  0
   -2.8143    4.5826   34.4835 H   0  0  0  0  0  0  0  0  0  0  0  0
   -3.0844    6.1512   33.6220 H   0  0  0  0  0  0  0  0  0  0  0  0
    0.5595    9.8029   29.6595 H   0  0  0  0  0  0  0  0  0  0  0  0
    1.8742   10.0536   30.9115 H   0  0  0  0  0  0  0  0  0  0  0  0
    3.5630    3.5091   31.9896 H   0  0  0  0  0  0  0  0  0  0  0  0
    3.1607    6.6744   35.5840 H   0  0  0  0  0  0  0  0  0  0  0  0
    3.6640    5.8775   34.0547 H   0  0  0  0  0  0  0  0  0  0  0  0
    3.2098    7.6155   34.0547 H   0  0  0  0  0  0  0  0  0  0  0  0
    4.4862    5.7654   31.5537 H   0  0  0  0  0  0  0  0  0  0  0  0
    1.5224    2.7478   30.8057 H   0  0  0  0  0  0  0  0  0  0  0  0
    0.3925    4.2484   29.1827 H   0  0  0  0  0  0  0  0  0  0  0  0
    1.3038    6.5100   28.7399 H   0  0  0  0  0  0  0  0  0  0  0  0
   -3.1295    3.4598   32.5798 H   0  0  0  0  0  0  0  0  0  0  0  0
   -3.5329    5.0108   31.7685 H   0  0  0  0  0  0  0  0  0  0  0  0
   -1.8397    4.4110   31.7685 H   0  0  0  0  0  0  0  0  0  0  0  0
   -1.1390    8.2922   30.0984 H   0  0  0  0  0  0  0  0  0  0  0  0
    1.4720    4.9651   35.8644 H   0  0  0  0  0  0  0  0  0  0  0  0
    1.8665    8.2672   28.6146 H   0  0  0  0  0  0  0  0  0  0  0  0
  1  6  1  0
  1  9  1  0
  1 18  2  0
  2  4  1  0
  2  8  1  0
  2 20  1  0
  3  4  2  0
  3 18  1  0
  4  5  1  0
  5  6  2  0
  5  7  1  0
  7 11  1  0
  7 19  2  0
  8 17  1  0
  9 21  1  0
 10 13  2  0
 10 14  1  0
 12 13  1  0
 12 16  2  0
 12 25  1  0
 14 15  2  0
 15 16  1  0
 19 20  1  0
 20 24  2  0
 25 21  1  6
 22 25  2  0
 23 25  2  0
  3 26  1  0
  6 27  1  0
  8 28  1  0
  8 29  1  0
  9 30  1  0
  9 31  1  0
 10 32  1  0
 11 33  1  0
 11 34  1  0
 11 35  1  0
 13 36  1  0
 14 37  1  0
 15 38  1  0
 16 39  1  0
 17 40  1  0
 17 41  1  0
 17 42  1  0
 18 43  1  0
 19 44  1  0
 21 45  1  0
M  END
>  <filename_input>  (6) 
8AY3_OE3_docked.sdf

>  <pdb_id>  (6) 
8AY3_OE3

>  <pose_rank>  (6) 
5

>  <num_atoms_heavy>  (6) 
25

>  <num_torsions>  (6) 
5

>  <pose>  (6) 
[0.7391068260582246, 8.293474785903692, 31.149605377064997, -2.4773234339551284, 1.6459871264604724, -1.2401100788411636, -0.32563425458815265, 0.24802838270589123, 4.329117434735333, 2.8051639884017368, -1.5146119852302535]

>  <energy>  (6) 
-577.9020195471509

>  <inter_energy>  (6) 
-689.9420160983941

>  <intra_energy>  (6) 
112.77640770401216

>  <rmsd>  (6) 
5.82558

>  <sdf_rank>  (6) 
0

$$$$

     RDKit          3D

 45 47  0  0  0  0  0  0  0  0999 V2000
    2.5694    3.8499   32.0880 C   0  0  0  0  0  0  0  0  0  0  0  0
   -0.7676    5.9147   33.6257 N   0  0  0  0  0  0  0  0  0  0  0  0
    1.4518    4.9384   33.9304 C   0  0  0  0  0  0  0  0  0  0  0  0
    0.3685    5.2453   33.1128 C   0  0  0  0  0  0  0  0  0  0  0  0
    0.3893    4.8716   31.7550 C   0  0  0  0  0  0  0  0  0  0  0  0
    1.4996    4.1763   31.2650 C   0  0  0  0  0  0  0  0  0  0  0  0
   -0.7564    5.2206   30.9361 C   0  0  0  0  0  0  0  0  0  0  0  0
   -0.8562    6.2217   35.0628 C   0  0  0  0  0  0  0  0  0  0  0  0
    3.7301    3.0399   31.5620 C   0  0  0  0  0  0  0  0  0  0  0  0
    3.0277    7.7246   31.6417 C   0  0  0  0  0  0  0  0  0  0  0  0
   -0.7884    4.8475   29.4816 C   0  0  0  0  0  0  0  0  0  0  0  0
    3.3129    6.0481   29.9511 C   0  0  0  0  0  0  0  0  0  0  0  0
    3.6379    6.5712   31.1984 C   0  0  0  0  0  0  0  0  0  0  0  0
    2.0895    8.3618   30.8532 C   0  0  0  0  0  0  0  0  0  0  0  0
    1.7594    7.8441   29.6132 C   0  0  0  0  0  0  0  0  0  0  0  0
    2.3663    6.6908   29.1618 C   0  0  0  0  0  0  0  0  0  0  0  0
    0.3118    7.0573   35.5163 C   0  0  0  0  0  0  0  0  0  0  0  0
    2.5355    4.2465   33.4165 C   0  0  0  0  0  0  0  0  0  0  0  0
   -1.7841    5.8784   31.5027 C   0  0  0  0  0  0  0  0  0  0  0  0
   -1.8559    6.2654   32.8545 C   0  0  0  0  0  0  0  0  0  0  0  0
    4.6356    3.7879   30.6698 N   0  0  0  0  0  0  0  0  0  0  0  0
    5.2461    4.9844   28.6311 O   0  0  0  0  0  0  0  0  0  0  0  0
    3.1013    3.7743   28.7640 O   0  0  0  0  0  0  0  0  0  0  0  0
   -2.7889    6.8941   33.3476 O   0  0  0  0  0  0  0  0  0  0  0  0
    4.0918    4.5966   29.3848 S   0  0  2  0  0  0  0  0  0  0  0  0
    1.4472    5.2458   34.9866 H   0  0  0  0  0  0  0  0  0  0  0  0
    1.5259    3.8818   30.2054 H   0  0  0  0  0  0  0  0  0  0  0  0
   -1.7879    6.7741   35.2545 H   0  0  0  0  0  0  0  0  0  0  0  0
   -0.8436    5.2744   35.6218 H   0  0  0  0  0  0  0  0  0  0  0  0
    4.3143    2.6769   32.4205 H   0  0  0  0  0  0  0  0  0  0  0  0
    3.2998    2.2238   30.9630 H   0  0  0  0  0  0  0  0  0  0  0  0
    3.2886    8.1390   32.6266 H   0  0  0  0  0  0  0  0  0  0  0  0
   -0.8821    3.7558   29.3851 H   0  0  0  0  0  0  0  0  0  0  0  0
   -1.6482    5.3335   28.9973 H   0  0  0  0  0  0  0  0  0  0  0  0
    0.1415    5.1800   28.9973 H   0  0  0  0  0  0  0  0  0  0  0  0
    4.3817    6.0643   31.8307 H   0  0  0  0  0  0  0  0  0  0  0  0
    1.6043    9.2818   31.2114 H   0  0  0  0  0  0  0  0  0  0  0  0
    1.0121    8.3529   28.9867 H   0  0  0  0  0  0  0  0  0  0  0  0
    2.1011    6.2795   28.1766 H   0  0  0  0  0  0  0  0  0  0  0  0
    0.3422    7.0790   36.6157 H   0  0  0  0  0  0  0  0  0  0  0  0
    1.2458    6.6211   35.1323 H   0  0  0  0  0  0  0  0  0  0  0  0
    0.2006    8.0821   35.1323 H   0  0  0  0  0  0  0  0  0  0  0  0
    3.3846    4.0071   34.0736 H   0  0  0  0  0  0  0  0  0  0  0  0
   -2.6374    6.1347   30.8575 H   0  0  0  0  0  0  0  0  0  0  0  0
    5.1186    4.4784   31.2621 H   0  0  0  0  0  0  0  0  0  0  0  0
  1  6  1  0
  1  9  1  0
  1 18  2  0
  2  4  1  0
  2  8  1  0
  2 20  1  0
  3  4  2  0
  3 18  1  0
  4  5  1  0
  5  6  2  0
  5  7  1  0
  7 11  1  0
  7 19  2  0
  8 17  1  0
  9 21  1  0
 10 13  2  0
 10 14  1  0
 12 13  1  0
 12 16  2  0
 12 25  1  0
 14 15  2  0
 15 16  1  0
 19 20  1  0
 20 24  2  0
 25 21  1  1
 22 25  2  0
 23 25  2  0
  3 26  1  0
  6 27  1  0
  8 28  1  0
  8 29  1  0
  9 30  1  0
  9 31  1  0
 10 32  1  0
 11 33  1  0
 11 34  1  0
 11 35  1  0
 13 36  1  0
 14 37  1  0
 15 38  1  0
 16 39  1  0
 17 40  1  0
 17 41  1  0
 17 42  1  0
 18 43  1  0
 19 44  1  0
 21 45  1  0
M  END
>  <filename_input>  (7) 
8AY3_OE3_docked.sdf

>  <pdb_id>  (7) 
8AY3_OE3

>  <pose_rank>  (7) 
6

>  <num_atoms_heavy>  (7) 
25

>  <num_torsions>  (7) 
5

>  <pose>  (7) 
[2.5693938938888645, 3.8498845882800263, 32.0879813190323, 0.6040103842614689, 2.2229577087344925, 1.1954978426450622, -0.45924406479332885, 0.2546006886598079, -2.0017793341953545, -3.4961700752362237, -4.704784180028086]

>  <energy>  (7) 
-518.7913339141219

>  <inter_energy>  (7) 
-641.0947343819412

>  <intra_energy>  (7) 
127.64795456207528

>  <rmsd>  (7) 
5.7998

>  <sdf_rank>  (7) 
0

$$$$

     RDKit          3D

 45 47  0  0  0  0  0  0  0  0999 V2000
    1.8200    7.9014   31.7242 C   0  0  0  0  0  0  0  0  0  0  0  0
   -1.2117    5.6634   33.6121 N   0  0  0  0  0  0  0  0  0  0  0  0
   -0.4546    7.0941   31.7814 C   0  0  0  0  0  0  0  0  0  0  0  0
   -0.1941    6.3960   32.9565 C   0  0  0  0  0  0  0  0  0  0  0  0
    1.0974    6.4283   33.5174 C   0  0  0  0  0  0  0  0  0  0  0  0
    2.0878    7.1861   32.8839 C   0  0  0  0  0  0  0  0  0  0  0  0
    1.3278    5.6778   34.7376 C   0  0  0  0  0  0  0  0  0  0  0  0
   -2.5922    5.7006   33.1021 C   0  0  0  0  0  0  0  0  0  0  0  0
    2.8800    8.7693   31.0893 C   0  0  0  0  0  0  0  0  0  0  0  0
    1.9088    3.6289   30.1415 C   0  0  0  0  0  0  0  0  0  0  0  0
    2.6855    5.6760   35.3796 C   0  0  0  0  0  0  0  0  0  0  0  0
    3.4814    5.4357   30.0294 C   0  0  0  0  0  0  0  0  0  0  0  0
    2.2815    4.8544   29.6330 C   0  0  0  0  0  0  0  0  0  0  0  0
    2.7211    2.9765   31.0484 C   0  0  0  0  0  0  0  0  0  0  0  0
    3.9141    3.5516   31.4493 C   0  0  0  0  0  0  0  0  0  0  0  0
    4.2948    4.7772   30.9443 C   0  0  0  0  0  0  0  0  0  0  0  0
   -2.8601    4.5520   32.1655 C   0  0  0  0  0  0  0  0  0  0  0  0
    0.5463    7.8377   31.1792 C   0  0  0  0  0  0  0  0  0  0  0  0
    0.3068    4.9901   35.2802 C   0  0  0  0  0  0  0  0  0  0  0  0
   -1.0017    4.9339   34.7636 C   0  0  0  0  0  0  0  0  0  0  0  0
    4.0573    8.0273   30.6005 N   0  0  0  0  0  0  0  0  0  0  0  0
    2.9024    7.4429   28.5304 O   0  0  0  0  0  0  0  0  0  0  0  0
    5.2752    6.8454   28.8382 O   0  0  0  0  0  0  0  0  0  0  0  0
   -1.9141    4.2745   35.2552 O   0  0  0  0  0  0  0  0  0  0  0  0
    3.9590    6.9792   29.3787 S   0  0  2  0  0  0  0  0  0  0  0  0
   -1.4570    7.0553   31.3302 H   0  0  0  0  0  0  0  0  0  0  0  0
    3.1001    7.2159   33.3134 H   0  0  0  0  0  0  0  0  0  0  0  0
   -3.2895    5.6411   33.9508 H   0  0  0  0  0  0  0  0  0  0  0  0
   -2.7329    6.6405   32.5484 H   0  0  0  0  0  0  0  0  0  0  0  0
    2.4278    9.2982   30.2374 H   0  0  0  0  0  0  0  0  0  0  0  0
    3.2401    9.4520   31.8730 H   0  0  0  0  0  0  0  0  0  0  0  0
    0.9614    3.1688   29.8240 H   0  0  0  0  0  0  0  0  0  0  0  0
    2.5736    5.6762   36.4739 H   0  0  0  0  0  0  0  0  0  0  0  0
    3.2375    4.7771   35.0676 H   0  0  0  0  0  0  0  0  0  0  0  0
    3.2399    6.5734   35.0676 H   0  0  0  0  0  0  0  0  0  0  0  0
    1.6302    5.3727   28.9138 H   0  0  0  0  0  0  0  0  0  0  0  0
    2.4193    1.9989   31.4524 H   0  0  0  0  0  0  0  0  0  0  0  0
    4.5597    3.0306   32.1716 H   0  0  0  0  0  0  0  0  0  0  0  0
    5.2425    5.2339   31.2658 H   0  0  0  0  0  0  0  0  0  0  0  0
   -3.0718    3.6443   32.7496 H   0  0  0  0  0  0  0  0  0  0  0  0
   -3.7267    4.7904   31.5314 H   0  0  0  0  0  0  0  0  0  0  0  0
   -1.9774    4.3825   31.5314 H   0  0  0  0  0  0  0  0  0  0  0  0
    0.3272    8.3877   30.2520 H   0  0  0  0  0  0  0  0  0  0  0  0
    0.5108    4.4261   36.2023 H   0  0  0  0  0  0  0  0  0  0  0  0
    4.7482    8.7367   30.3172 H   0  0  0  0  0  0  0  0  0  0  0  0
  1  6  1  0
  1  9  1  0
  1 18  2  0
  2  4  1  0
  2  8  1  0
  2 20  1  0
  3  4  2  0
  3 18  1  0
  4  5  1  0
  5  6  2  0
  5  7  1  0
  7 11  1  0
  7 19  2  0
  8 17  1  0
  9 21  1  0
 10 13  2  0
 10 14  1  0
 12 13  1  0
 12 16  2  0
 12 25  1  0
 14 15  2  0
 15 16  1  0
 19 20  1  0
 20 24  2  0
 25 21  1  1
 22 25  2  0
 23 25  2  0
  3 26  1  0
  6 27  1  0
  8 28  1  0
  8 29  1  0
  9 30  1  0
  9 31  1  0
 10 32  1  0
 11 33  1  0
 11 34  1  0
 11 35  1  0
 13 36  1  0
 14 37  1  0
 15 38  1  0
 16 39  1  0
 17 40  1  0
 17 41  1  0
 17 42  1  0
 18 43  1  0
 19 44  1  0
 21 45  1  0
M  END
>  <filename_input>  (8) 
8AY3_OE3_docked.sdf

>  <pdb_id>  (8) 
8AY3_OE3

>  <pose_rank>  (8) 
7

>  <num_atoms_heavy>  (8) 
25

>  <num_torsions>  (8) 
5

>  <pose>  (8) 
[1.8199708270720236, 7.9013954600925285, 31.724238706208734, -2.0314601476151255, 1.9291955539507666, -1.444409019193329, 0.17281711040726638, 6.357509614263976, 6.353912436309989, 6.270421288404782, 3.2400511838585953]

>  <energy>  (8) 
-705.4895154257729

>  <inter_energy>  (8) 
-708.9463629562345

>  <intra_energy>  (8) 
12.708875403767918

>  <rmsd>  (8) 
6.00536

>  <sdf_rank>  (8) 
0

$$$$

     RDKit          3D

 45 47  0  0  0  0  0  0  0  0999 V2000
   -0.9854    5.3791   30.9516 C   0  0  0  0  0  0  0  0  0  0  0  0
    2.6530    6.9151   29.4797 N   0  0  0  0  0  0  0  0  0  0  0  0
    0.2637    7.1712   29.9235 C   0  0  0  0  0  0  0  0  0  0  0  0
    1.4322    6.4191   29.9949 C   0  0  0  0  0  0  0  0  0  0  0  0
    1.4031    5.1352   30.5730 C   0  0  0  0  0  0  0  0  0  0  0  0
    0.1844    4.6367   31.0451 C   0  0  0  0  0  0  0  0  0  0  0  0
    2.6462    4.3896   30.6364 C   0  0  0  0  0  0  0  0  0  0  0  0
    2.6859    8.2089   28.7782 C   0  0  0  0  0  0  0  0  0  0  0  0
   -2.3054    4.8016   31.4030 C   0  0  0  0  0  0  0  0  0  0  0  0
   -2.2059    8.2715   34.0233 C   0  0  0  0  0  0  0  0  0  0  0  0
    2.6743    3.0158   31.2426 C   0  0  0  0  0  0  0  0  0  0  0  0
   -1.5923    5.9538   34.0667 C   0  0  0  0  0  0  0  0  0  0  0  0
   -2.5682    6.9423   33.9925 C   0  0  0  0  0  0  0  0  0  0  0  0
   -0.8748    8.6270   34.1228 C   0  0  0  0  0  0  0  0  0  0  0  0
    0.1007    7.6481   34.1931 C   0  0  0  0  0  0  0  0  0  0  0  0
   -0.2537    6.3157   34.1640 C   0  0  0  0  0  0  0  0  0  0  0  0
    2.8477    9.3516   29.7459 C   0  0  0  0  0  0  0  0  0  0  0  0
   -0.9281    6.6491   30.3971 C   0  0  0  0  0  0  0  0  0  0  0  0
    3.7654    4.9490   30.1421 C   0  0  0  0  0  0  0  0  0  0  0  0
    3.8440    6.2228   29.5476 C   0  0  0  0  0  0  0  0  0  0  0  0
   -2.1941    3.8201   32.4984 N   0  0  0  0  0  0  0  0  0  0  0  0
   -3.3556    4.1654   34.6179 O   0  0  0  0  0  0  0  0  0  0  0  0
   -0.9776    3.5119   34.5987 O   0  0  0  0  0  0  0  0  0  0  0  0
    4.8816    6.7309   29.1302 O   0  0  0  0  0  0  0  0  0  0  0  0
   -2.0500    4.2734   34.0394 S   0  0  2  0  0  0  0  0  0  0  0  0
    0.2868    8.1820   29.4901 H   0  0  0  0  0  0  0  0  0  0  0  0
    0.1520    3.6357   31.5001 H   0  0  0  0  0  0  0  0  0  0  0  0
    3.5308    8.2134   28.0738 H   0  0  0  0  0  0  0  0  0  0  0  0
    1.7333    8.3386   28.2436 H   0  0  0  0  0  0  0  0  0  0  0  0
   -2.9447    5.6289   31.7450 H   0  0  0  0  0  0  0  0  0  0  0  0
   -2.7269    4.2652   30.5401 H   0  0  0  0  0  0  0  0  0  0  0  0
   -2.9791    9.0520   33.9684 H   0  0  0  0  0  0  0  0  0  0  0  0
    2.6726    3.0989   32.3394 H   0  0  0  0  0  0  0  0  0  0  0  0
    1.7875    2.4528   30.9161 H   0  0  0  0  0  0  0  0  0  0  0  0
    3.5834    2.4895   30.9161 H   0  0  0  0  0  0  0  0  0  0  0  0
   -3.6289    6.6630   33.9094 H   0  0  0  0  0  0  0  0  0  0  0  0
   -0.5900    9.6892   34.1462 H   0  0  0  0  0  0  0  0  0  0  0  0
    1.1602    7.9331   34.2724 H   0  0  0  0  0  0  0  0  0  0  0  0
    0.5232    5.5388   34.2179 H   0  0  0  0  0  0  0  0  0  0  0  0
    2.7937    8.9700   30.7761 H   0  0  0  0  0  0  0  0  0  0  0  0
    3.8231    9.8337   29.5841 H   0  0  0  0  0  0  0  0  0  0  0  0
    2.0446   10.0856   29.5841 H   0  0  0  0  0  0  0  0  0  0  0  0
   -1.8457    7.2523   30.3324 H   0  0  0  0  0  0  0  0  0  0  0  0
    4.6945    4.3636   30.2077 H   0  0  0  0  0  0  0  0  0  0  0  0
   -3.0397    3.2343   32.4478 H   0  0  0  0  0  0  0  0  0  0  0  0
  1  6  1  0
  1  9  1  0
  1 18  2  0
  2  4  1  0
  2  8  1  0
  2 20  1  0
  3  4  2  0
  3 18  1  0
  4  5  1  0
  5  6  2  0
  5  7  1  0
  7 11  1  0
  7 19  2  0
  8 17  1  0
  9 21  1  0
 10 13  2  0
 10 14  1  0
 12 13  1  0
 12 16  2  0
 12 25  1  0
 14 15  2  0
 15 16  1  0
 19 20  1  0
 20 24  2  0
 25 21  1  6
 22 25  2  0
 23 25  2  0
  3 26  1  0
  6 27  1  0
  8 28  1  0
  8 29  1  0
  9 30  1  0
  9 31  1  0
 10 32  1  0
 11 33  1  0
 11 34  1  0
 11 35  1  0
 13 36  1  0
 14 37  1  0
 15 38  1  0
 16 39  1  0
 17 40  1  0
 17 41  1  0
 17 42  1  0
 18 43  1  0
 19 44  1  0
 21 45  1  0
M  END
>  <filename_input>  (9) 
8AY3_OE3_docked.sdf

>  <pdb_id>  (9) 
8AY3_OE3

>  <pose_rank>  (9) 
8

>  <num_atoms_heavy>  (9) 
25

>  <num_torsions>  (9) 
5

>  <pose>  (9) 
[-0.9853501063008836, 5.379147466625487, 30.951554998327808, -0.12463205563388956, -0.09648677569465704, -0.05486320600380445, 0.03650219809465011, -0.5175996031528052, 6.62123216874987, 1.1984974337352339, 2.6695204770787986]

>  <energy>  (9) 
-700.9495943282509

>  <inter_energy>  (9) 
-722.9141081100286

>  <intra_energy>  (9) 
28.770443938142165

>  <rmsd>  (9) 
1.95135

>  <sdf_rank>  (9) 
0

$$$$

     RDKit          3D

 45 47  0  0  0  0  0  0  0  0999 V2000
    0.8791    8.1178   31.3436 C   0  0  0  0  0  0  0  0  0  0  0  0
   -2.0150    5.5852   33.0679 N   0  0  0  0  0  0  0  0  0  0  0  0
   -0.6329    7.5987   33.1527 C   0  0  0  0  0  0  0  0  0  0  0  0
   -1.0635    6.4557   32.4860 C   0  0  0  0  0  0  0  0  0  0  0  0
   -0.5353    6.1452   31.2179 C   0  0  0  0  0  0  0  0  0  0  0  0
    0.4332    6.9905   30.6664 C   0  0  0  0  0  0  0  0  0  0  0  0
   -1.0197    4.9497   30.5536 C   0  0  0  0  0  0  0  0  0  0  0  0
   -2.5023    5.8330   34.4348 C   0  0  0  0  0  0  0  0  0  0  0  0
    1.9737    8.9834   30.7667 C   0  0  0  0  0  0  0  0  0  0  0  0
    2.8636    3.6732   29.8060 C   0  0  0  0  0  0  0  0  0  0  0  0
   -0.4918    4.5699   29.1999 C   0  0  0  0  0  0  0  0  0  0  0  0
    3.5483    5.7267   30.8376 C   0  0  0  0  0  0  0  0  0  0  0  0
    3.3171    4.9697   29.6938 C   0  0  0  0  0  0  0  0  0  0  0  0
    2.6327    3.1229   31.0518 C   0  0  0  0  0  0  0  0  0  0  0  0
    2.8574    3.8724   32.1930 C   0  0  0  0  0  0  0  0  0  0  0  0
    3.3122    5.1702   32.0894 C   0  0  0  0  0  0  0  0  0  0  0  0
   -3.5746    4.8481   34.8199 C   0  0  0  0  0  0  0  0  0  0  0  0
    0.3294    8.4145   32.5819 C   0  0  0  0  0  0  0  0  0  0  0  0
   -1.9433    4.1917   31.1719 C   0  0  0  0  0  0  0  0  0  0  0  0
   -2.4945    4.4544   32.4405 C   0  0  0  0  0  0  0  0  0  0  0  0
    2.9836    8.2431   29.9873 N   0  0  0  0  0  0  0  0  0  0  0  0
    5.2492    7.3526   29.8010 O   0  0  0  0  0  0  0  0  0  0  0  0
    4.3044    7.8864   32.0156 O   0  0  0  0  0  0  0  0  0  0  0  0
   -3.3610    3.7680   32.9762 O   0  0  0  0  0  0  0  0  0  0  0  0
    4.1323    7.3617   30.6974 S   0  0  2  0  0  0  0  0  0  0  0  0
   -1.0576    7.8545   34.1346 H   0  0  0  0  0  0  0  0  0  0  0  0
    0.8503    6.7573   29.6756 H   0  0  0  0  0  0  0  0  0  0  0  0
   -1.6612    5.7402   35.1375 H   0  0  0  0  0  0  0  0  0  0  0  0
   -2.9307    6.8455   34.4726 H   0  0  0  0  0  0  0  0  0  0  0  0
    1.5100    9.7319   30.1075 H   0  0  0  0  0  0  0  0  0  0  0  0
    2.5018    9.4346   31.6196 H   0  0  0  0  0  0  0  0  0  0  0  0
    2.6849    3.0746   28.9006 H   0  0  0  0  0  0  0  0  0  0  0  0
    0.3958    3.9311   29.3184 H   0  0  0  0  0  0  0  0  0  0  0  0
   -1.2669    4.0211   28.6448 H   0  0  0  0  0  0  0  0  0  0  0  0
   -0.2178    5.4792   28.6448 H   0  0  0  0  0  0  0  0  0  0  0  0
    3.4961    5.4058   28.6999 H   0  0  0  0  0  0  0  0  0  0  0  0
    2.2700    2.0879   31.1366 H   0  0  0  0  0  0  0  0  0  0  0  0
    2.6730    3.4324   33.1842 H   0  0  0  0  0  0  0  0  0  0  0  0
    3.4882    5.7652   32.9976 H   0  0  0  0  0  0  0  0  0  0  0  0
   -3.6403    4.7877   35.9162 H   0  0  0  0  0  0  0  0  0  0  0  0
   -4.5409    5.1801   34.4123 H   0  0  0  0  0  0  0  0  0  0  0  0
   -3.3257    3.8572   34.4123 H   0  0  0  0  0  0  0  0  0  0  0  0
    0.6637    9.3137   33.1200 H   0  0  0  0  0  0  0  0  0  0  0  0
   -2.2964    3.2938   30.6434 H   0  0  0  0  0  0  0  0  0  0  0  0
    2.4613    7.5984   29.3769 H   0  0  0  0  0  0  0  0  0  0  0  0
  1  6  1  0
  1  9  1  0
  1 18  2  0
  2  4  1  0
  2  8  1  0
  2 20  1  0
  3  4  2  0
  3 18  1  0
  4  5  1  0
  5  6  2  0
  5  7  1  0
  7 11  1  0
  7 19  2  0
  8 17  1  0
  9 21  1  0
 10 13  2  0
 10 14  1  0
 12 13  1  0
 12 16  2  0
 12 25  1  0
 14 15  2  0
 15 16  1  0
 19 20  1  0
 20 24  2  0
 25 21  1  6
 22 25  2  0
 23 25  2  0
  3 26  1  0
  6 27  1  0
  8 28  1  0
  8 29  1  0
  9 30  1  0
  9 31  1  0
 10 32  1  0
 11 33  1  0
 11 34  1  0
 11 35  1  0
 13 36  1  0
 14 37  1  0
 15 38  1  0
 16 39  1  0
 17 40  1  0
 17 41  1  0
 17 42  1  0
 18 43  1  0
 19 44  1  0
 21 45  1  0
M  END
>  <filename_input>  (10) 
8AY3_OE3_docked.sdf

>  <pdb_id>  (10) 
8AY3_OE3

>  <pose_rank>  (10) 
9

>  <num_atoms_heavy>  (10) 
25

>  <num_torsions>  (10) 
5

>  <pose>  (10) 
[0.8790807347112706, 8.117847389910516, 31.343578510189676, -1.202602364321592, 2.7067640249768585, 1.352821187449275, 1.6089225452035198, 10.948594468768047, 22.719363347519025, -9.469335199475486, 14.896496375007278]

>  <energy>  (10) 
-605.8743501437842

>  <inter_energy>  (10) 
-678.9949077201161

>  <intra_energy>  (10) 
74.49436651022486

>  <rmsd>  (10) 
5.85765

>  <sdf_rank>  (10) 
0

$$$$

     RDKit          3D

 45 47  0  0  0  0  0  0  0  0999 V2000
    2.7046    4.5222   31.1892 C   0  0  0  0  0  0  0  0  0  0  0  0
    3.6303    8.3173   29.6069 N   0  0  0  0  0  0  0  0  0  0  0  0
    2.0934    6.8212   30.7779 C   0  0  0  0  0  0  0  0  0  0  0  0
    3.3205    7.0544   30.1646 C   0  0  0  0  0  0  0  0  0  0  0  0
    4.2679    6.0159   30.0790 C   0  0  0  0  0  0  0  0  0  0  0  0
    3.9388    4.7596   30.5986 C   0  0  0  0  0  0  0  0  0  0  0  0
    5.5383    6.3053   29.4406 C   0  0  0  0  0  0  0  0  0  0  0  0
    2.6173    9.3853   29.5917 C   0  0  0  0  0  0  0  0  0  0  0  0
    2.3372    3.1438   31.6844 C   0  0  0  0  0  0  0  0  0  0  0  0
   -2.8052    5.0215   33.1778 C   0  0  0  0  0  0  0  0  0  0  0  0
    6.5861    5.2359   29.3217 C   0  0  0  0  0  0  0  0  0  0  0  0
   -0.7246    4.1890   34.0310 C   0  0  0  0  0  0  0  0  0  0  0  0
   -1.6734    4.2521   33.0158 C   0  0  0  0  0  0  0  0  0  0  0  0
   -2.9993    5.7354   34.3443 C   0  0  0  0  0  0  0  0  0  0  0  0
   -2.0571    5.6795   35.3561 C   0  0  0  0  0  0  0  0  0  0  0  0
   -0.9223    4.9111   35.2023 C   0  0  0  0  0  0  0  0  0  0  0  0
    2.5639   10.1070   30.9125 C   0  0  0  0  0  0  0  0  0  0  0  0
    1.7958    5.5658   31.2804 C   0  0  0  0  0  0  0  0  0  0  0  0
    5.7564    7.5420   28.9582 C   0  0  0  0  0  0  0  0  0  0  0  0
    4.8396    8.6092   29.0113 C   0  0  0  0  0  0  0  0  0  0  0  0
    0.9793    3.0463   32.2518 N   0  0  0  0  0  0  0  0  0  0  0  0
    0.4035    1.8976   34.3278 O   0  0  0  0  0  0  0  0  0  0  0  0
    1.8114    3.9218   34.3796 O   0  0  0  0  0  0  0  0  0  0  0  0
    5.0681    9.7417   28.5938 O   0  0  0  0  0  0  0  0  0  0  0  0
    0.7008    3.2079   33.8321 S   0  0  2  0  0  0  0  0  0  0  0  0
    1.3588    7.6355   30.8637 H   0  0  0  0  0  0  0  0  0  0  0  0
    4.6729    3.9427   30.5382 H   0  0  0  0  0  0  0  0  0  0  0  0
    2.8680   10.1059   28.7993 H   0  0  0  0  0  0  0  0  0  0  0  0
    1.6340    8.9288   29.4052 H   0  0  0  0  0  0  0  0  0  0  0  0
    2.4088    2.4434   30.8393 H   0  0  0  0  0  0  0  0  0  0  0  0
    3.0373    2.9038   32.4981 H   0  0  0  0  0  0  0  0  0  0  0  0
   -3.5564    5.0673   32.3755 H   0  0  0  0  0  0  0  0  0  0  0  0
    6.8994    4.9162   30.3264 H   0  0  0  0  0  0  0  0  0  0  0  0
    6.1717    4.3756   28.7757 H   0  0  0  0  0  0  0  0  0  0  0  0
    7.4547    5.6328   28.7757 H   0  0  0  0  0  0  0  0  0  0  0  0
   -1.5204    3.6880   32.0840 H   0  0  0  0  0  0  0  0  0  0  0  0
   -3.9038    6.3490   34.4689 H   0  0  0  0  0  0  0  0  0  0  0  0
   -2.2134    6.2487   36.2843 H   0  0  0  0  0  0  0  0  0  0  0  0
   -0.1733    4.8695   36.0068 H   0  0  0  0  0  0  0  0  0  0  0  0
    2.6180    9.3757   31.7324 H   0  0  0  0  0  0  0  0  0  0  0  0
    3.4130   10.8025   30.9848 H   0  0  0  0  0  0  0  0  0  0  0  0
    1.6217   10.6700   30.9848 H   0  0  0  0  0  0  0  0  0  0  0  0
    0.8212    5.3931   31.7605 H   0  0  0  0  0  0  0  0  0  0  0  0
    6.7298    7.7351   28.4837 H   0  0  0  0  0  0  0  0  0  0  0  0
    0.4184    3.7728   31.7843 H   0  0  0  0  0  0  0  0  0  0  0  0
  1  6  1  0
  1  9  1  0
  1 18  2  0
  2  4  1  0
  2  8  1  0
  2 20  1  0
  3  4  2  0
  3 18  1  0
  4  5  1  0
  5  6  2  0
  5  7  1  0
  7 11  1  0
  7 19  2  0
  8 17  1  0
  9 21  1  0
 10 13  2  0
 10 14  1  0
 12 13  1  0
 12 16  2  0
 12 25  1  0
 14 15  2  0
 15 16  1  0
 19 20  1  0
 20 24  2  0
 25 21  1  6
 22 25  2  0
 23 25  2  0
  3 26  1  0
  6 27  1  0
  8 28  1  0
  8 29  1  0
  9 30  1  0
  9 31  1  0
 10 32  1  0
 11 33  1  0
 11 34  1  0
 11 35  1  0
 13 36  1  0
 14 37  1  0
 15 38  1  0
 16 39  1  0
 17 40  1  0
 17 41  1  0
 17 42  1  0
 18 43  1  0
 19 44  1  0
 21 45  1  0
M  END
>  <filename_input>  (11) 
8AY3_OE3_docked.sdf

>  <pdb_id>  (11) 
8AY3_OE3

>  <pose_rank>  (11) 
10

>  <num_atoms_heavy>  (11) 
25

>  <num_torsions>  (11) 
5

>  <pose>  (11) 
[2.704619270318557, 4.522158368435093, 31.18919170230068, -1.8346770725620474, -2.3834078252947895, -4.630140334876464, -0.02637056707525033, -29.28436708056407, -15.288469209184798, 16.451530632674118, 1.6140105247828676]

>  <energy>  (11) 
-462.95446787496564

>  <inter_energy>  (11) 
-485.34781116633883

>  <intra_energy>  (11) 
11.564506389203654

>  <rmsd>  (11) 
3.32825

>  <sdf_rank>  (11) 
0

$$$$

     RDKit          3D

 45 47  0  0  0  0  0  0  0  0999 V2000
    0.4771    4.8854   31.1631 C   0  0  0  0  0  0  0  0  0  0  0  0
    4.0657    6.3231   29.4842 N   0  0  0  0  0  0  0  0  0  0  0  0
    2.7771    4.5257   30.5236 C   0  0  0  0  0  0  0  0  0  0  0  0
    2.8581    5.8224   30.0256 C   0  0  0  0  0  0  0  0  0  0  0  0
    1.7281    6.6616   30.0733 C   0  0  0  0  0  0  0  0  0  0  0  0
    0.5493    6.1718   30.6451 C   0  0  0  0  0  0  0  0  0  0  0  0
    1.8536    8.0026   29.5336 C   0  0  0  0  0  0  0  0  0  0  0  0
    5.2863    5.5009   29.5192 C   0  0  0  0  0  0  0  0  0  0  0  0
   -0.7807    4.3936   31.8385 C   0  0  0  0  0  0  0  0  0  0  0  0
    1.2496    5.2290   35.8966 C   0  0  0  0  0  0  0  0  0  0  0  0
    0.6810    8.9406   29.5578 C   0  0  0  0  0  0  0  0  0  0  0  0
   -0.2558    6.1371   34.2659 C   0  0  0  0  0  0  0  0  0  0  0  0
   -0.0075    5.2818   35.3344 C   0  0  0  0  0  0  0  0  0  0  0  0
    2.2647    6.0269   35.4055 C   0  0  0  0  0  0  0  0  0  0  0  0
    2.0226    6.8824   34.3453 C   0  0  0  0  0  0  0  0  0  0  0  0
    0.7676    6.9404   33.7764 C   0  0  0  0  0  0  0  0  0  0  0  0
    6.4321    6.1938   28.8299 C   0  0  0  0  0  0  0  0  0  0  0  0
    1.5967    4.0704   31.0863 C   0  0  0  0  0  0  0  0  0  0  0  0
    3.0347    8.3872   29.0169 C   0  0  0  0  0  0  0  0  0  0  0  0
    4.1935    7.5901   28.9544 C   0  0  0  0  0  0  0  0  0  0  0  0
   -1.7703    5.4507   32.1189 N   0  0  0  0  0  0  0  0  0  0  0  0
   -2.1475    7.5684   33.2739 O   0  0  0  0  0  0  0  0  0  0  0  0
   -2.7303    5.4371   34.3693 O   0  0  0  0  0  0  0  0  0  0  0  0
    5.2550    7.9472   28.4497 O   0  0  0  0  0  0  0  0  0  0  0  0
   -1.8414    6.1963   33.5472 S   0  0  2  0  0  0  0  0  0  0  0  0
    3.6522    3.8612   30.4703 H   0  0  0  0  0  0  0  0  0  0  0  0
   -0.3392    6.8191   30.6852 H   0  0  0  0  0  0  0  0  0  0  0  0
    5.5606    5.3111   30.5674 H   0  0  0  0  0  0  0  0  0  0  0  0
    5.0842    4.5564   28.9929 H   0  0  0  0  0  0  0  0  0  0  0  0
   -1.2522    3.6444   31.1856 H   0  0  0  0  0  0  0  0  0  0  0  0
   -0.4758    3.9805   32.8113 H   0  0  0  0  0  0  0  0  0  0  0  0
    1.4454    4.5493   36.7390 H   0  0  0  0  0  0  0  0  0  0  0  0
    0.4077    9.1592   30.6006 H   0  0  0  0  0  0  0  0  0  0  0  0
    0.9492    9.8762   29.0452 H   0  0  0  0  0  0  0  0  0  0  0  0
   -0.1729    8.4734   29.0452 H   0  0  0  0  0  0  0  0  0  0  0  0
   -0.8143    4.6477   35.7306 H   0  0  0  0  0  0  0  0  0  0  0  0
    3.2664    5.9822   35.8578 H   0  0  0  0  0  0  0  0  0  0  0  0
    2.8322    7.5170   33.9556 H   0  0  0  0  0  0  0  0  0  0  0  0
    0.5764    7.6226   32.9350 H   0  0  0  0  0  0  0  0  0  0  0  0
    7.1173    6.6082   29.5841 H   0  0  0  0  0  0  0  0  0  0  0  0
    6.9727    5.4712   28.2010 H   0  0  0  0  0  0  0  0  0  0  0  0
    6.0432    7.0082   28.2010 H   0  0  0  0  0  0  0  0  0  0  0  0
    1.5459    3.0442   31.4792 H   0  0  0  0  0  0  0  0  0  0  0  0
    3.1003    9.4072   28.6102 H   0  0  0  0  0  0  0  0  0  0  0  0
   -1.6126    6.1873   31.4165 H   0  0  0  0  0  0  0  0  0  0  0  0
  1  6  1  0
  1  9  1  0
  1 18  2  0
  2  4  1  0
  2  8  1  0
  2 20  1  0
  3  4  2  0
  3 18  1  0
  4  5  1  0
  5  6  2  0
  5  7  1  0
  7 11  1  0
  7 19  2  0
  8 17  1  0
  9 21  1  0
 10 13  2  0
 10 14  1  0
 12 13  1  0
 12 16  2  0
 12 25  1  0
 14 15  2  0
 15 16  1  0
 19 20  1  0
 20 24  2  0
 25 21  1  6
 22 25  2  0
 23 25  2  0
  3 26  1  0
  6 27  1  0
  8 28  1  0
  8 29  1  0
  9 30  1  0
  9 31  1  0
 10 32  1  0
 11 33  1  0
 11 34  1  0
 11 35  1  0
 13 36  1  0
 14 37  1  0
 15 38  1  0
 16 39  1  0
 17 40  1  0
 17 41  1  0
 17 42  1  0
 18 43  1  0
 19 44  1  0
 21 45  1  0
M  END
>  <filename_input>  (12) 
8AY3_OE3_docked.sdf

>  <pdb_id>  (12) 
8AY3_OE3

>  <pose_rank>  (12) 
11

>  <num_atoms_heavy>  (12) 
25

>  <num_torsions>  (12) 
5

>  <pose>  (12) 
[0.47713040084015, 4.885417559064306, 31.163149537345525, 2.5883091671648795, 1.2452466130670838, -1.2162251678753098, 1.6272960715871798, 11.331383812474156, -2.7354090647372016, -10.617205570531132, -0.6755962971349467]

>  <energy>  (12) 
-602.9944686826578

>  <inter_energy>  (12) 
-687.1211790739252

>  <intra_energy>  (12) 
86.77752038260472

>  <rmsd>  (12) 
2.60907

>  <sdf_rank>  (12) 
0

$$$$

     RDKit          3D

 45 47  0  0  0  0  0  0  0  0999 V2000
   -0.2013    7.9727   33.0686 C   0  0  0  0  0  0  0  0  0  0  0  0
    2.8606    8.2863   30.1893 N   0  0  0  0  0  0  0  0  0  0  0  0
    0.5788    8.7606   30.9240 C   0  0  0  0  0  0  0  0  0  0  0  0
    1.8344    8.2094   31.1603 C   0  0  0  0  0  0  0  0  0  0  0  0
    2.0898    7.5478   32.3771 C   0  0  0  0  0  0  0  0  0  0  0  0
    1.0582    7.4427   33.3159 C   0  0  0  0  0  0  0  0  0  0  0  0
    3.4156    6.9968   32.5863 C   0  0  0  0  0  0  0  0  0  0  0  0
    2.5852    8.8801   28.8707 C   0  0  0  0  0  0  0  0  0  0  0  0
   -1.3242    7.7924   34.0618 C   0  0  0  0  0  0  0  0  0  0  0  0
    1.3858    3.6156   32.2145 C   0  0  0  0  0  0  0  0  0  0  0  0
    3.7444    6.2813   33.8652 C   0  0  0  0  0  0  0  0  0  0  0  0
   -0.6911    4.7087   32.7060 C   0  0  0  0  0  0  0  0  0  0  0  0
    0.4200    3.9845   33.1256 C   0  0  0  0  0  0  0  0  0  0  0  0
    1.2572    3.9666   30.8847 C   0  0  0  0  0  0  0  0  0  0  0  0
    0.1561    4.6902   30.4622 C   0  0  0  0  0  0  0  0  0  0  0  0
   -0.8154    5.0624   31.3675 C   0  0  0  0  0  0  0  0  0  0  0  0
    1.6814    7.9969   28.0514 C   0  0  0  0  0  0  0  0  0  0  0  0
   -0.4231    8.6377   31.8719 C   0  0  0  0  0  0  0  0  0  0  0  0
    4.3379    7.1365   31.6168 C   0  0  0  0  0  0  0  0  0  0  0  0
    4.1290    7.7801   30.3822 C   0  0  0  0  0  0  0  0  0  0  0  0
   -1.3844    6.4504   34.6708 N   0  0  0  0  0  0  0  0  0  0  0  0
   -2.0442    4.1037   34.8071 O   0  0  0  0  0  0  0  0  0  0  0  0
   -3.0738    5.5861   33.1264 O   0  0  0  0  0  0  0  0  0  0  0  0
    4.9928    7.9264   29.5211 O   0  0  0  0  0  0  0  0  0  0  0  0
   -1.9181    5.1658   33.8547 S   0  0  2  0  0  0  0  0  0  0  0  0
    0.3818    9.2948   29.9828 H   0  0  0  0  0  0  0  0  0  0  0  0
    1.2486    6.9294   34.2700 H   0  0  0  0  0  0  0  0  0  0  0  0
    2.0997    9.8571   29.0120 H   0  0  0  0  0  0  0  0  0  0  0  0
    3.5390    8.9937   28.3348 H   0  0  0  0  0  0  0  0  0  0  0  0
   -1.1945    8.5308   34.8667 H   0  0  0  0  0  0  0  0  0  0  0  0
   -2.2630    7.9287   33.5049 H   0  0  0  0  0  0  0  0  0  0  0  0
    2.2619    3.0396   32.5472 H   0  0  0  0  0  0  0  0  0  0  0  0
    3.4559    6.9091   34.7211 H   0  0  0  0  0  0  0  0  0  0  0  0
    3.1928    5.3304   33.9055 H   0  0  0  0  0  0  0  0  0  0  0  0
    4.8251    6.0803   33.9055 H   0  0  0  0  0  0  0  0  0  0  0  0
    0.5277    3.7065   34.1844 H   0  0  0  0  0  0  0  0  0  0  0  0
    2.0310    3.6707   30.1610 H   0  0  0  0  0  0  0  0  0  0  0  0
    0.0554    4.9688   29.4028 H   0  0  0  0  0  0  0  0  0  0  0  0
   -1.6891    5.6394   31.0302 H   0  0  0  0  0  0  0  0  0  0  0  0
    1.0579    7.3875   28.7222 H   0  0  0  0  0  0  0  0  0  0  0  0
    1.0354    8.6214   27.4169 H   0  0  0  0  0  0  0  0  0  0  0  0
    2.2909    7.3367   27.4169 H   0  0  0  0  0  0  0  0  0  0  0  0
   -1.4124    9.0753   31.6723 H   0  0  0  0  0  0  0  0  0  0  0  0
    5.3359    6.7136   31.8040 H   0  0  0  0  0  0  0  0  0  0  0  0
   -0.4243    6.2251   34.9677 H   0  0  0  0  0  0  0  0  0  0  0  0
  1  6  1  0
  1  9  1  0
  1 18  2  0
  2  4  1  0
  2  8  1  0
  2 20  1  0
  3  4  2  0
  3 18  1  0
  4  5  1  0
  5  6  2  0
  5  7  1  0
  7 11  1  0
  7 19  2  0
  8 17  1  0
  9 21  1  0
 10 13  2  0
 10 14  1  0
 12 13  1  0
 12 16  2  0
 12 25  1  0
 14 15  2  0
 15 16  1  0
 19 20  1  0
 20 24  2  0
 25 21  1  1
 22 25  2  0
 23 25  2  0
  3 26  1  0
  6 27  1  0
  8 28  1  0
  8 29  1  0
  9 30  1  0
  9 31  1  0
 10 32  1  0
 11 33  1  0
 11 34  1  0
 11 35  1  0
 13 36  1  0
 14 37  1  0
 15 38  1  0
 16 39  1  0
 17 40  1  0
 17 41  1  0
 17 42  1  0
 18 43  1  0
 19 44  1  0
 21 45  1  0
M  END
>  <filename_input>  (13) 
8AY3_OE3_docked.sdf

>  <pdb_id>  (13) 
8AY3_OE3

>  <pose_rank>  (13) 
12

>  <num_atoms_heavy>  (13) 
25

>  <num_torsions>  (13) 
5

>  <pose>  (13) 
[-0.2012566665242709, 7.972684252111142, 33.06859267637206, 5.421778041994106, -0.7421825749895525, -0.4778737632990511, 3.597663778485924, -20.598047635571604, 16.471574484761753, 21.618952055645597, 2.561093738704771]

>  <energy>  (13) 
-626.8760197697543

>  <inter_energy>  (13) 
-661.2349478080931

>  <intra_energy>  (13) 
35.14854165360492

>  <rmsd>  (13) 
2.75946

>  <sdf_rank>  (13) 
0

$$$$

     RDKit          3D

 45 47  0  0  0  0  0  0  0  0999 V2000
    1.5318    4.4929   32.4089 C   0  0  0  0  0  0  0  0  0  0  0  0
    3.2803    7.2473   29.7407 N   0  0  0  0  0  0  0  0  0  0  0  0
    3.4816    5.3601   31.2800 C   0  0  0  0  0  0  0  0  0  0  0  0
    2.6993    6.3013   30.6180 C   0  0  0  0  0  0  0  0  0  0  0  0
    1.3078    6.3296   30.8330 C   0  0  0  0  0  0  0  0  0  0  0  0
    0.7464    5.4160   31.7311 C   0  0  0  0  0  0  0  0  0  0  0  0
    0.5287    7.3206   30.1145 C   0  0  0  0  0  0  0  0  0  0  0  0
    4.7426    7.3042   29.5812 C   0  0  0  0  0  0  0  0  0  0  0  0
    0.9219    3.5583   33.4261 C   0  0  0  0  0  0  0  0  0  0  0  0
   -0.7787    8.2127   33.8410 C   0  0  0  0  0  0  0  0  0  0  0  0
   -0.9591    7.3965   30.3047 C   0  0  0  0  0  0  0  0  0  0  0  0
    0.1270    6.2470   34.8733 C   0  0  0  0  0  0  0  0  0  0  0  0
    0.3118    7.4813   34.2590 C   0  0  0  0  0  0  0  0  0  0  0  0
   -2.0572    7.7265   34.0341 C   0  0  0  0  0  0  0  0  0  0  0  0
   -2.2474    6.5011   34.6479 C   0  0  0  0  0  0  0  0  0  0  0  0
   -1.1612    5.7624   35.0682 C   0  0  0  0  0  0  0  0  0  0  0  0
    5.2691    6.0585   28.9183 C   0  0  0  0  0  0  0  0  0  0  0  0
    2.8969    4.4704   32.1654 C   0  0  0  0  0  0  0  0  0  0  0  0
    1.1621    8.1665   29.2820 C   0  0  0  0  0  0  0  0  0  0  0  0
    2.5491    8.1840   29.0406 C   0  0  0  0  0  0  0  0  0  0  0  0
    1.3416    3.8188   34.8159 N   0  0  0  0  0  0  0  0  0  0  0  0
    1.4504    5.2105   36.8190 O   0  0  0  0  0  0  0  0  0  0  0  0
    2.6715    5.8721   34.7811 O   0  0  0  0  0  0  0  0  0  0  0  0
    3.1066    8.9432   28.2521 O   0  0  0  0  0  0  0  0  0  0  0  0
    1.5050    5.3163   35.3918 S   0  0  2  0  0  0  0  0  0  0  0  0
    4.5661    5.3226   31.0996 H   0  0  0  0  0  0  0  0  0  0  0  0
   -0.3398    5.4291   31.9042 H   0  0  0  0  0  0  0  0  0  0  0  0
    5.0020    8.1762   28.9628 H   0  0  0  0  0  0  0  0  0  0  0  0
    5.1981    7.3858   30.5791 H   0  0  0  0  0  0  0  0  0  0  0  0
   -0.1724    3.6567   33.3722 H   0  0  0  0  0  0  0  0  0  0  0  0
    1.2723    2.5463   33.1750 H   0  0  0  0  0  0  0  0  0  0  0  0
   -0.6307    9.1868   33.3520 H   0  0  0  0  0  0  0  0  0  0  0  0
   -1.1912    7.4083   31.3799 H   0  0  0  0  0  0  0  0  0  0  0  0
   -1.3422    8.3153   29.8368 H   0  0  0  0  0  0  0  0  0  0  0  0
   -1.4337    6.5213   29.8368 H   0  0  0  0  0  0  0  0  0  0  0  0
    1.3283    7.8734   34.1070 H   0  0  0  0  0  0  0  0  0  0  0  0
   -2.9248    8.3141   33.6996 H   0  0  0  0  0  0  0  0  0  0  0  0
   -3.2662    6.1156   34.8008 H   0  0  0  0  0  0  0  0  0  0  0  0
   -1.3144    4.7894   35.5579 H   0  0  0  0  0  0  0  0  0  0  0  0
    5.5750    5.3349   29.6882 H   0  0  0  0  0  0  0  0  0  0  0  0
    4.4812    5.6158   28.2913 H   0  0  0  0  0  0  0  0  0  0  0  0
    6.1357    6.3152   28.2913 H   0  0  0  0  0  0  0  0  0  0  0  0
    3.5264    3.7328   32.6849 H   0  0  0  0  0  0  0  0  0  0  0  0
    0.5465    8.9043   28.7465 H   0  0  0  0  0  0  0  0  0  0  0  0
    0.6491    3.3519   35.4187 H   0  0  0  0  0  0  0  0  0  0  0  0
  1  6  1  0
  1  9  1  0
  1 18  2  0
  2  4  1  0
  2  8  1  0
  2 20  1  0
  3  4  2  0
  3 18  1  0
  4  5  1  0
  5  6  2  0
  5  7  1  0
  7 11  1  0
  7 19  2  0
  8 17  1  0
  9 21  1  0
 10 13  2  0
 10 14  1  0
 12 13  1  0
 12 16  2  0
 12 25  1  0
 14 15  2  0
 15 16  1  0
 19 20  1  0
 20 24  2  0
 25 21  1  6
 22 25  2  0
 23 25  2  0
  3 26  1  0
  6 27  1  0
  8 28  1  0
  8 29  1  0
  9 30  1  0
  9 31  1  0
 10 32  1  0
 11 33  1  0
 11 34  1  0
 11 35  1  0
 13 36  1  0
 14 37  1  0
 15 38  1  0
 16 39  1  0
 17 40  1  0
 17 41  1  0
 17 42  1  0
 18 43  1  0
 19 44  1  0
 21 45  1  0
M  END
>  <filename_input>  (14) 
8AY3_OE3_docked.sdf

>  <pdb_id>  (14) 
8AY3_OE3

>  <pose_rank>  (14) 
13

>  <num_atoms_heavy>  (14) 
25

>  <num_torsions>  (14) 
5

>  <pose>  (14) 
[1.5317649823917758, 4.492855849052619, 32.408918241771445, 1.745345015357494, 1.690469189893241, -1.3661884863683225, -0.29845766773128407, -2.9927690173492594, -0.3819765246032688, -4.02329892537277, -1.079582830948172]

>  <energy>  (14) 
-573.0945826951411

>  <inter_energy>  (14) 
-637.2678555940489

>  <intra_energy>  (14) 
70.17364592432229

>  <rmsd>  (14) 
3.44487

>  <sdf_rank>  (14) 
0

$$$$

     RDKit          3D

 45 47  0  0  0  0  0  0  0  0999 V2000
   -0.2602    6.5277   30.9002 C   0  0  0  0  0  0  0  0  0  0  0  0
    3.4540    7.4799   29.1507 N   0  0  0  0  0  0  0  0  0  0  0  0
    1.1969    8.1264   29.8282 C   0  0  0  0  0  0  0  0  0  0  0  0
    2.2130    7.1782   29.7596 C   0  0  0  0  0  0  0  0  0  0  0  0
    2.0038    5.8896   30.2881 C   0  0  0  0  0  0  0  0  0  0  0  0
    0.7608    5.5876   30.8540 C   0  0  0  0  0  0  0  0  0  0  0  0
    3.0934    4.9353   30.2048 C   0  0  0  0  0  0  0  0  0  0  0  0
    3.6581    8.7842   28.4994 C   0  0  0  0  0  0  0  0  0  0  0  0
   -1.6186    6.1669   31.4521 C   0  0  0  0  0  0  0  0  0  0  0  0
   -0.0855    4.7251   35.1978 C   0  0  0  0  0  0  0  0  0  0  0  0
    2.9265    3.5467   30.7523 C   0  0  0  0  0  0  0  0  0  0  0  0
   -0.4819    6.8640   34.1888 C   0  0  0  0  0  0  0  0  0  0  0  0
   -0.9500    5.6243   34.6120 C   0  0  0  0  0  0  0  0  0  0  0  0
    1.2453    5.0521   35.3711 C   0  0  0  0  0  0  0  0  0  0  0  0
    1.7159    6.2852   34.9554 C   0  0  0  0  0  0  0  0  0  0  0  0
    0.8575    7.1903   34.3674 C   0  0  0  0  0  0  0  0  0  0  0  0
    2.9449    8.8514   27.1747 C   0  0  0  0  0  0  0  0  0  0  0  0
   -0.0239    7.7963   30.3921 C   0  0  0  0  0  0  0  0  0  0  0  0
    4.2480    5.3158   29.6286 C   0  0  0  0  0  0  0  0  0  0  0  0
    4.5025    6.5867   29.0788 C   0  0  0  0  0  0  0  0  0  0  0  0
   -2.2805    7.2573   32.1926 N   0  0  0  0  0  0  0  0  0  0  0  0
   -0.7857    9.0592   32.8850 O   0  0  0  0  0  0  0  0  0  0  0  0
   -2.6015    8.3116   34.3770 O   0  0  0  0  0  0  0  0  0  0  0  0
    5.5745    6.9270   28.5848 O   0  0  0  0  0  0  0  0  0  0  0  0
   -1.5711    7.9970   33.4378 S   0  0  2  0  0  0  0  0  0  0  0  0
    1.3638    9.1396   29.4338 H   0  0  0  0  0  0  0  0  0  0  0  0
    0.5884    4.5845   31.2711 H   0  0  0  0  0  0  0  0  0  0  0  0
    3.2704    9.5772   29.1559 H   0  0  0  0  0  0  0  0  0  0  0  0
    4.7352    8.9189   28.3213 H   0  0  0  0  0  0  0  0  0  0  0  0
   -2.2667    5.8779   30.6116 H   0  0  0  0  0  0  0  0  0  0  0  0
   -1.4605    5.3485   32.1699 H   0  0  0  0  0  0  0  0  0  0  0  0
   -0.4564    3.7437   35.5284 H   0  0  0  0  0  0  0  0  0  0  0  0
    2.9309    3.5831   31.8516 H   0  0  0  0  0  0  0  0  0  0  0  0
    1.9714    3.1273   30.4031 H   0  0  0  0  0  0  0  0  0  0  0  0
    3.7549    2.9128   30.4031 H   0  0  0  0  0  0  0  0  0  0  0  0
   -2.0099    5.3619   34.4791 H   0  0  0  0  0  0  0  0  0  0  0  0
    1.9317    4.3316   35.8399 H   0  0  0  0  0  0  0  0  0  0  0  0
    2.7760    6.5438   35.0943 H   0  0  0  0  0  0  0  0  0  0  0  0
    1.2328    8.1710   34.0395 H   0  0  0  0  0  0  0  0  0  0  0  0
    1.8630    8.9533   27.3455 H   0  0  0  0  0  0  0  0  0  0  0  0
    3.3095    9.7192   26.6055 H   0  0  0  0  0  0  0  0  0  0  0  0
    3.1412    7.9308   26.6055 H   0  0  0  0  0  0  0  0  0  0  0  0
   -0.8203    8.5537   30.4379 H   0  0  0  0  0  0  0  0  0  0  0  0
    5.0589    4.5739   29.5833 H   0  0  0  0  0  0  0  0  0  0  0  0
   -2.4876    7.9917   31.5007 H   0  0  0  0  0  0  0  0  0  0  0  0
  1  6  1  0
  1  9  1  0
  1 18  2  0
  2  4  1  0
  2  8  1  0
  2 20  1  0
  3  4  2  0
  3 18  1  0
  4  5  1  0
  5  6  2  0
  5  7  1  0
  7 11  1  0
  7 19  2  0
  8 17  1  0
  9 21  1  0
 10 13  2  0
 10 14  1  0
 12 13  1  0
 12 16  2  0
 12 25  1  0
 14 15  2  0
 15 16  1  0
 19 20  1  0
 20 24  2  0
 25 21  1  6
 22 25  2  0
 23 25  2  0
  3 26  1  0
  6 27  1  0
  8 28  1  0
  8 29  1  0
  9 30  1  0
  9 31  1  0
 10 32  1  0
 11 33  1  0
 11 34  1  0
 11 35  1  0
 13 36  1  0
 14 37  1  0
 15 38  1  0
 16 39  1  0
 17 40  1  0
 17 41  1  0
 17 42  1  0
 18 43  1  0
 19 44  1  0
 21 45  1  0
M  END
>  <filename_input>  (15) 
8AY3_OE3_docked.sdf

>  <pdb_id>  (15) 
8AY3_OE3

>  <pose_rank>  (15) 
14

>  <num_atoms_heavy>  (15) 
25

>  <num_torsions>  (15) 
5

>  <pose>  (15) 
[-0.2602399303252733, 6.527699504992133, 30.90023268241595, -0.08846819397108582, 0.007229138667685972, -0.22954693045768007, -2.7720227604429573, 7.76540062618491, 16.803727561150712, -24.147501206372574, 6.51243903410872]

>  <energy>  (15) 
-589.4248418136905

>  <inter_energy>  (15) 
-622.4049777507669

>  <intra_energy>  (15) 
49.702737799359596

>  <rmsd>  (15) 
1.94792

>  <sdf_rank>  (15) 
0

$$$$

     RDKit          3D

 45 47  0  0  0  0  0  0  0  0999 V2000
   -0.3349    5.0431   32.6680 C   0  0  0  0  0  0  0  0  0  0  0  0
    1.1246    6.6785   36.2678 N   0  0  0  0  0  0  0  0  0  0  0  0
   -0.6167    5.5011   35.0215 C   0  0  0  0  0  0  0  0  0  0  0  0
    0.6368    6.1032   35.0707 C   0  0  0  0  0  0  0  0  0  0  0  0
    1.4316    6.1593   33.9094 C   0  0  0  0  0  0  0  0  0  0  0  0
    0.9261    5.6223   32.7209 C   0  0  0  0  0  0  0  0  0  0  0  0
    2.7361    6.7868   34.0079 C   0  0  0  0  0  0  0  0  0  0  0  0
    0.2699    6.7245   37.4655 C   0  0  0  0  0  0  0  0  0  0  0  0
   -0.8951    4.5289   31.3634 C   0  0  0  0  0  0  0  0  0  0  0  0
    2.7191    8.1465   29.2398 C   0  0  0  0  0  0  0  0  0  0  0  0
    3.6263    6.8745   32.8015 C   0  0  0  0  0  0  0  0  0  0  0  0
    2.3285    5.8014   29.5531 C   0  0  0  0  0  0  0  0  0  0  0  0
    1.8432    7.0870   29.3368 C   0  0  0  0  0  0  0  0  0  0  0  0
    4.0797    7.9361   29.3518 C   0  0  0  0  0  0  0  0  0  0  0  0
    4.5685    6.6590   29.5632 C   0  0  0  0  0  0  0  0  0  0  0  0
    3.6986    5.5935   29.6625 C   0  0  0  0  0  0  0  0  0  0  0  0
    0.0639    8.1403   37.9361 C   0  0  0  0  0  0  0  0  0  0  0  0
   -1.0908    4.9809   33.8291 C   0  0  0  0  0  0  0  0  0  0  0  0
    3.1286    7.2876   35.1932 C   0  0  0  0  0  0  0  0  0  0  0  0
    2.3684    7.2640   36.3780 C   0  0  0  0  0  0  0  0  0  0  0  0
   -0.2060    5.0418   30.1645 N   0  0  0  0  0  0  0  0  0  0  0  0
    1.6879    3.6132   30.7415 O   0  0  0  0  0  0  0  0  0  0  0  0
    1.0322    3.9110   28.3828 O   0  0  0  0  0  0  0  0  0  0  0  0
    2.7561    7.6980   37.4599 O   0  0  0  0  0  0  0  0  0  0  0  0
    1.2217    4.4631   29.6874 S   0  0  2  0  0  0  0  0  0  0  0  0
   -1.2319    5.4383   35.9313 H   0  0  0  0  0  0  0  0  0  0  0  0
    1.5402    5.6597   31.8090 H   0  0  0  0  0  0  0  0  0  0  0  0
   -0.7076    6.2807   37.2256 H   0  0  0  0  0  0  0  0  0  0  0  0
    0.7665    6.1602   38.2686 H   0  0  0  0  0  0  0  0  0  0  0  0
   -0.8168    3.4317   31.3632 H   0  0  0  0  0  0  0  0  0  0  0  0
   -1.9351    4.8825   31.3053 H   0  0  0  0  0  0  0  0  0  0  0  0
    2.3335    9.1630   29.0726 H   0  0  0  0  0  0  0  0  0  0  0  0
    4.6727    6.9776   33.1247 H   0  0  0  0  0  0  0  0  0  0  0  0
    3.5172    5.9613   32.1981 H   0  0  0  0  0  0  0  0  0  0  0  0
    3.3411    7.7489   32.1981 H   0  0  0  0  0  0  0  0  0  0  0  0
    0.7606    7.2579   29.2433 H   0  0  0  0  0  0  0  0  0  0  0  0
    4.7753    8.7846   29.2728 H   0  0  0  0  0  0  0  0  0  0  0  0
    5.6523    6.4934   29.6521 H   0  0  0  0  0  0  0  0  0  0  0  0
    4.0890    4.5786   29.8285 H   0  0  0  0  0  0  0  0  0  0  0  0
    0.0604    8.1643   39.0358 H   0  0  0  0  0  0  0  0  0  0  0  0
    0.8792    8.7746   37.5580 H   0  0  0  0  0  0  0  0  0  0  0  0
   -0.8984    8.5160   37.5580 H   0  0  0  0  0  0  0  0  0  0  0  0
   -2.0846    4.5100   33.8023 H   0  0  0  0  0  0  0  0  0  0  0  0
    4.1241    7.7533   35.2405 H   0  0  0  0  0  0  0  0  0  0  0  0
   -0.8533    4.8986   29.3762 H   0  0  0  0  0  0  0  0  0  0  0  0
  1  6  1  0
  1  9  1  0
  1 18  2  0
  2  4  1  0
  2  8  1  0
  2 20  1  0
  3  4  2  0
  3 18  1  0
  4  5  1  0
  5  6  2  0
  5  7  1  0
  7 11  1  0
  7 19  2  0
  8 17  1  0
  9 21  1  0
 10 13  2  0
 10 14  1  0
 12 13  1  0
 12 16  2  0
 12 25  1  0
 14 15  2  0
 15 16  1  0
 19 20  1  0
 20 24  2  0
 25 21  1  1
 22 25  2  0
 23 25  2  0
  3 26  1  0
  6 27  1  0
  8 28  1  0
  8 29  1  0
  9 30  1  0
  9 31  1  0
 10 32  1  0
 11 33  1  0
 11 34  1  0
 11 35  1  0
 13 36  1  0
 14 37  1  0
 15 38  1  0
 16 39  1  0
 17 40  1  0
 17 41  1  0
 17 42  1  0
 18 43  1  0
 19 44  1  0
 21 45  1  0
M  END
>  <filename_input>  (16) 
8AY3_OE3_docked.sdf

>  <pdb_id>  (16) 
8AY3_OE3

>  <pose_rank>  (16) 
15

>  <num_atoms_heavy>  (16) 
25

>  <num_torsions>  (16) 
5

>  <pose>  (16) 
[-0.33488478950793016, 5.043062697335987, 32.667979343567204, -4.1039421519300605, 0.36885051734255947, -1.5085202577084111, 2.7045922571145886, -51.60321355904107, -75.12693416243549, -6.982303800576973, 7.038804027826357]

>  <energy>  (16) 
-509.03226128287065

>  <inter_energy>  (16) 
-567.2207363842816

>  <intra_energy>  (16) 
68.15394922614266

>  <rmsd>  (16) 
5.61377

>  <sdf_rank>  (16) 
0

$$$$

     RDKit          3D

 45 47  0  0  0  0  0  0  0  0999 V2000
    0.3197    6.1549   34.3607 C   0  0  0  0  0  0  0  0  0  0  0  0
    1.9626    6.2666   30.4810 N   0  0  0  0  0  0  0  0  0  0  0  0
    0.1319    5.6999   31.9972 C   0  0  0  0  0  0  0  0  0  0  0  0
    1.3913    6.2483   31.7753 C   0  0  0  0  0  0  0  0  0  0  0  0
    2.1223    6.7807   32.8551 C   0  0  0  0  0  0  0  0  0  0  0  0
    1.5666    6.7240   34.1374 C   0  0  0  0  0  0  0  0  0  0  0  0
    3.4268    7.3519   32.5773 C   0  0  0  0  0  0  0  0  0  0  0  0
    1.2630    5.6228   29.3570 C   0  0  0  0  0  0  0  0  0  0  0  0
   -0.2378    6.0393   35.7592 C   0  0  0  0  0  0  0  0  0  0  0  0
   -0.2066   10.2848   40.5136 C   0  0  0  0  0  0  0  0  0  0  0  0
    4.2501    7.9342   33.6902 C   0  0  0  0  0  0  0  0  0  0  0  0
   -0.0497    8.4917   38.9292 C   0  0  0  0  0  0  0  0  0  0  0  0
    0.4616    9.6613   39.4821 C   0  0  0  0  0  0  0  0  0  0  0  0
   -1.3815    9.7495   41.0048 C   0  0  0  0  0  0  0  0  0  0  0  0
   -1.8928    8.5843   40.4612 C   0  0  0  0  0  0  0  0  0  0  0  0
   -1.2308    7.9548   39.4281 C   0  0  0  0  0  0  0  0  0  0  0  0
    1.5787    4.1519   29.2870 C   0  0  0  0  0  0  0  0  0  0  0  0
   -0.3902    5.6558   33.2789 C   0  0  0  0  0  0  0  0  0  0  0  0
    3.8822    7.3472   31.3114 C   0  0  0  0  0  0  0  0  0  0  0  0
    3.1946    6.8201   30.2016 C   0  0  0  0  0  0  0  0  0  0  0  0
   -0.3001    7.3167   36.4938 N   0  0  0  0  0  0  0  0  0  0  0  0
    1.3223    6.4760   38.1131 O   0  0  0  0  0  0  0  0  0  0  0  0
    1.6737    8.6612   37.0253 O   0  0  0  0  0  0  0  0  0  0  0  0
    3.6124    6.8532   29.0469 O   0  0  0  0  0  0  0  0  0  0  0  0
    0.7879    7.7089   37.6178 S   0  0  2  0  0  0  0  0  0  0  0  0
   -0.4498    5.3008   31.1532 H   0  0  0  0  0  0  0  0  0  0  0  0
    2.1291    7.1389   34.9868 H   0  0  0  0  0  0  0  0  0  0  0  0
    0.1785    5.7508   29.4893 H   0  0  0  0  0  0  0  0  0  0  0  0
    1.5992    6.0952   28.4222 H   0  0  0  0  0  0  0  0  0  0  0  0
   -1.2568    5.6305   35.6914 H   0  0  0  0  0  0  0  0  0  0  0  0
    0.4476    5.3861   36.3192 H   0  0  0  0  0  0  0  0  0  0  0  0
    0.1970   11.2117   40.9472 H   0  0  0  0  0  0  0  0  0  0  0  0
    3.8237    7.6326   34.6583 H   0  0  0  0  0  0  0  0  0  0  0  0
    5.2835    7.5649   33.6138 H   0  0  0  0  0  0  0  0  0  0  0  0
    4.2463    9.0315   33.6138 H   0  0  0  0  0  0  0  0  0  0  0  0
    1.3989   10.0884   39.0961 H   0  0  0  0  0  0  0  0  0  0  0  0
   -1.9111   10.2501   41.8288 H   0  0  0  0  0  0  0  0  0  0  0  0
   -2.8285    8.1596   40.8537 H   0  0  0  0  0  0  0  0  0  0  0  0
   -1.6376    7.0274   38.9986 H   0  0  0  0  0  0  0  0  0  0  0  0
    1.6657    3.7466   30.3059 H   0  0  0  0  0  0  0  0  0  0  0  0
    0.7723    3.6289   28.7520 H   0  0  0  0  0  0  0  0  0  0  0  0
    2.5286    4.0058   28.7520 H   0  0  0  0  0  0  0  0  0  0  0  0
   -1.3857    5.2172   33.4419 H   0  0  0  0  0  0  0  0  0  0  0  0
    4.8719    7.7911   31.1287 H   0  0  0  0  0  0  0  0  0  0  0  0
   -0.2612    8.0607   35.7826 H   0  0  0  0  0  0  0  0  0  0  0  0
  1  6  1  0
  1  9  1  0
  1 18  2  0
  2  4  1  0
  2  8  1  0
  2 20  1  0
  3  4  2  0
  3 18  1  0
  4  5  1  0
  5  6  2  0
  5  7  1  0
  7 11  1  0
  7 19  2  0
  8 17  1  0
  9 21  1  0
 10 13  2  0
 10 14  1  0
 12 13  1  0
 12 16  2  0
 12 25  1  0
 14 15  2  0
 15 16  1  0
 19 20  1  0
 20 24  2  0
 25 21  1  6
 22 25  2  0
 23 25  2  0
  3 26  1  0
  6 27  1  0
  8 28  1  0
  8 29  1  0
  9 30  1  0
  9 31  1  0
 10 32  1  0
 11 33  1  0
 11 34  1  0
 11 35  1  0
 13 36  1  0
 14 37  1  0
 15 38  1  0
 16 39  1  0
 17 40  1  0
 17 41  1  0
 17 42  1  0
 18 43  1  0
 19 44  1  0
 21 45  1  0
M  END
>  <filename_input>  (17) 
8AY3_OE3_docked.sdf

>  <pdb_id>  (17) 
8AY3_OE3

>  <pose_rank>  (17) 
16

>  <num_atoms_heavy>  (17) 
25

>  <num_torsions>  (17) 
5

>  <pose>  (17) 
[0.31973939985547123, 6.154945606020556, 34.36067642453281, 3.7761042025380465, -0.3557375998851872, -2.6152724791239197, 3.3323874631897485, 6.208325711677763, 9.706040120537846, -0.9658635456913368, -1.160795455851507]

>  <energy>  (17) 
-436.31099870579624

>  <inter_energy>  (17) 
-442.0730491183852

>  <intra_energy>  (17) 
6.851136380178117

>  <rmsd>  (17) 
4.75663

>  <sdf_rank>  (17) 
0

$$$$

     RDKit          3D

 45 47  0  0  0  0  0  0  0  0999 V2000
    5.4417    7.4186   35.4052 C   0  0  0  0  0  0  0  0  0  0  0  0
    9.4473    6.7042   34.3061 N   0  0  0  0  0  0  0  0  0  0  0  0
    7.3541    7.9334   34.0245 C   0  0  0  0  0  0  0  0  0  0  0  0
    8.1102    6.9699   34.6850 C   0  0  0  0  0  0  0  0  0  0  0  0
    7.5363    6.2315   35.7380 C   0  0  0  0  0  0  0  0  0  0  0  0
    6.2020    6.4734   36.0810 C   0  0  0  0  0  0  0  0  0  0  0  0
    8.3635    5.2442   36.4060 C   0  0  0  0  0  0  0  0  0  0  0  0
   10.0338    7.3888   33.1422 C   0  0  0  0  0  0  0  0  0  0  0  0
    3.9835    7.6211   35.7409 C   0  0  0  0  0  0  0  0  0  0  0  0
   -0.4058    7.7767   31.8817 C   0  0  0  0  0  0  0  0  0  0  0  0
    7.8039    4.4280   37.5357 C   0  0  0  0  0  0  0  0  0  0  0  0
    0.7400    6.5051   33.5611 C   0  0  0  0  0  0  0  0  0  0  0  0
    0.7584    7.4557   32.5457 C   0  0  0  0  0  0  0  0  0  0  0  0
   -1.5938    7.1608   32.2242 C   0  0  0  0  0  0  0  0  0  0  0  0
   -1.6188    6.2172   33.2359 C   0  0  0  0  0  0  0  0  0  0  0  0
   -0.4580    5.8895   33.9046 C   0  0  0  0  0  0  0  0  0  0  0  0
   10.8659    8.5707   33.5653 C   0  0  0  0  0  0  0  0  0  0  0  0
    6.0346    8.1480   34.3854 C   0  0  0  0  0  0  0  0  0  0  0  0
    9.6328    5.0739   35.9941 C   0  0  0  0  0  0  0  0  0  0  0  0
   10.2484    5.7795   34.9428 C   0  0  0  0  0  0  0  0  0  0  0  0
    3.0685    7.4419   34.5981 N   0  0  0  0  0  0  0  0  0  0  0  0
    2.9836    5.2494   33.5272 O   0  0  0  0  0  0  0  0  0  0  0  0
    1.8680    5.6146   35.6961 O   0  0  0  0  0  0  0  0  0  0  0  0
   11.4192    5.6333   34.6009 O   0  0  0  0  0  0  0  0  0  0  0  0
    2.2129    6.0902   34.3933 S   0  0  2  0  0  0  0  0  0  0  0  0
    7.8052    8.5254   33.2146 H   0  0  0  0  0  0  0  0  0  0  0  0
    5.7455    5.9030   36.9033 H   0  0  0  0  0  0  0  0  0  0  0  0
   10.6710    6.6801   32.5930 H   0  0  0  0  0  0  0  0  0  0  0  0
    9.2150    7.7513   32.5033 H   0  0  0  0  0  0  0  0  0  0  0  0
    3.7058    6.8977   36.5216 H   0  0  0  0  0  0  0  0  0  0  0  0
    3.8773    8.6654   36.0696 H   0  0  0  0  0  0  0  0  0  0  0  0
   -0.3889    8.5259   31.0764 H   0  0  0  0  0  0  0  0  0  0  0  0
    8.1084    4.8721   38.4949 H   0  0  0  0  0  0  0  0  0  0  0  0
    6.7059    4.4148   37.4698 H   0  0  0  0  0  0  0  0  0  0  0  0
    8.1875    3.3991   37.4698 H   0  0  0  0  0  0  0  0  0  0  0  0
    1.7019    7.9511   32.2728 H   0  0  0  0  0  0  0  0  0  0  0  0
   -2.5208    7.4207   31.6921 H   0  0  0  0  0  0  0  0  0  0  0  0
   -2.5658    5.7277   33.5072 H   0  0  0  0  0  0  0  0  0  0  0  0
   -0.4802    5.1407   34.7100 H   0  0  0  0  0  0  0  0  0  0  0  0
   10.9008    8.6202   34.6636 H   0  0  0  0  0  0  0  0  0  0  0  0
   11.8867    8.4605   33.1706 H   0  0  0  0  0  0  0  0  0  0  0  0
   10.4179    9.4946   33.1706 H   0  0  0  0  0  0  0  0  0  0  0  0
    5.4463    8.9104   33.8538 H   0  0  0  0  0  0  0  0  0  0  0  0
   10.2388    4.3224   36.5214 H   0  0  0  0  0  0  0  0  0  0  0  0
    2.3850    8.2105   34.6525 H   0  0  0  0  0  0  0  0  0  0  0  0
  1  6  1  0
  1  9  1  0
  1 18  2  0
  2  4  1  0
  2  8  1  0
  2 20  1  0
  3  4  2  0
  3 18  1  0
  4  5  1  0
  5  6  2  0
  5  7  1  0
  7 11  1  0
  7 19  2  0
  8 17  1  0
  9 21  1  0
 10 13  2  0
 10 14  1  0
 12 13  1  0
 12 16  2  0
 12 25  1  0
 14 15  2  0
 15 16  1  0
 19 20  1  0
 20 24  2  0
 25 21  1  1
 22 25  2  0
 23 25  2  0
  3 26  1  0
  6 27  1  0
  8 28  1  0
  8 29  1  0
  9 30  1  0
  9 31  1  0
 10 32  1  0
 11 33  1  0
 11 34  1  0
 11 35  1  0
 13 36  1  0
 14 37  1  0
 15 38  1  0
 16 39  1  0
 17 40  1  0
 17 41  1  0
 17 42  1  0
 18 43  1  0
 19 44  1  0
 21 45  1  0
M  END
>  <filename_input>  (18) 
8AY3_OE3_docked.sdf

>  <pdb_id>  (18) 
8AY3_OE3

>  <pose_rank>  (18) 
17

>  <num_atoms_heavy>  (18) 
25

>  <num_torsions>  (18) 
5

>  <pose>  (18) 
[5.4416716298396235, 7.418609683794602, 35.40517142868152, 4.311389091831233, 1.5629765178474275, 2.991316442824112, 0.25377178534573414, -3.1809636946198974, 0.69107950481564, 4.108965126623533, 1.858841971343658]

>  <energy>  (18) 
-225.87874378507362

>  <inter_energy>  (18) 
-206.10917926429616

>  <intra_energy>  (18) 
6.934541007793543

>  <rmsd>  (18) 
6.82791

>  <sdf_rank>  (18) 
0

$$$$

     RDKit          3D

 45 47  0  0  0  0  0  0  0  0999 V2000
   -2.5907    3.5537   36.6865 C   0  0  0  0  0  0  0  0  0  0  0  0
   -4.2027    3.3101   40.5731 N   0  0  0  0  0  0  0  0  0  0  0  0
   -3.2490    4.6250   38.7474 C   0  0  0  0  0  0  0  0  0  0  0  0
   -3.6846    3.4070   39.2600 C   0  0  0  0  0  0  0  0  0  0  0  0
   -3.5957    2.2441   38.4705 C   0  0  0  0  0  0  0  0  0  0  0  0
   -3.0468    2.3416   37.1876 C   0  0  0  0  0  0  0  0  0  0  0  0
   -4.0709    0.9973   39.0403 C   0  0  0  0  0  0  0  0  0  0  0  0
   -4.2083    4.4907   41.4525 C   0  0  0  0  0  0  0  0  0  0  0  0
   -1.9383    3.6315   35.3270 C   0  0  0  0  0  0  0  0  0  0  0  0
    0.6427    5.1268   30.3525 C   0  0  0  0  0  0  0  0  0  0  0  0
   -4.0007   -0.2739   38.2436 C   0  0  0  0  0  0  0  0  0  0  0  0
   -0.7328    4.8763   32.3006 C   0  0  0  0  0  0  0  0  0  0  0  0
   -0.5398    5.3734   31.0159 C   0  0  0  0  0  0  0  0  0  0  0  0
    1.6369    4.3825   30.9573 C   0  0  0  0  0  0  0  0  0  0  0  0
    1.4490    3.8823   32.2336 C   0  0  0  0  0  0  0  0  0  0  0  0
    0.2690    4.1255   32.9047 C   0  0  0  0  0  0  0  0  0  0  0  0
   -2.9385    4.5786   42.2576 C   0  0  0  0  0  0  0  0  0  0  0  0
   -2.7076    4.6889   37.4746 C   0  0  0  0  0  0  0  0  0  0  0  0
   -4.5699    1.0021   40.2897 C   0  0  0  0  0  0  0  0  0  0  0  0
   -4.6715    2.1342   41.1205 C   0  0  0  0  0  0  0  0  0  0  0  0
   -1.9611    4.9758   34.7205 N   0  0  0  0  0  0  0  0  0  0  0  0
   -3.1737    4.2028   32.7475 O   0  0  0  0  0  0  0  0  0  0  0  0
   -2.5457    6.5777   32.9660 O   0  0  0  0  0  0  0  0  0  0  0  0
   -5.1597    2.1260   42.2478 O   0  0  0  0  0  0  0  0  0  0  0  0
   -2.2224    5.1970   33.1445 S   0  0  2  0  0  0  0  0  0  0  0  0
   -3.3349    5.5385   39.3542 H   0  0  0  0  0  0  0  0  0  0  0  0
   -2.9749    1.4392   36.5627 H   0  0  0  0  0  0  0  0  0  0  0  0
   -4.3052    5.3965   40.8360 H   0  0  0  0  0  0  0  0  0  0  0  0
   -5.0554    4.4016   42.1485 H   0  0  0  0  0  0  0  0  0  0  0  0
   -0.8892    3.3172   35.4294 H   0  0  0  0  0  0  0  0  0  0  0  0
   -2.5174    2.9749   34.6609 H   0  0  0  0  0  0  0  0  0  0  0  0
    0.7953    5.5238   29.3380 H   0  0  0  0  0  0  0  0  0  0  0  0
   -3.9533   -1.1336   38.9282 H   0  0  0  0  0  0  0  0  0  0  0  0
   -4.8956   -0.3591   37.6095 H   0  0  0  0  0  0  0  0  0  0  0  0
   -3.1020   -0.2601   37.6095 H   0  0  0  0  0  0  0  0  0  0  0  0
   -1.3307    5.9632   30.5295 H   0  0  0  0  0  0  0  0  0  0  0  0
    2.5788    4.1874   30.4237 H   0  0  0  0  0  0  0  0  0  0  0  0
    2.2419    3.2899   32.7137 H   0  0  0  0  0  0  0  0  0  0  0  0
    0.1205    3.7253   33.9185 H   0  0  0  0  0  0  0  0  0  0  0  0
   -3.1824    4.5617   43.3301 H   0  0  0  0  0  0  0  0  0  0  0  0
   -2.2908    3.7231   42.0153 H   0  0  0  0  0  0  0  0  0  0  0  0
   -2.4148    5.5151   42.0153 H   0  0  0  0  0  0  0  0  0  0  0  0
   -2.3640    5.6572   37.0816 H   0  0  0  0  0  0  0  0  0  0  0  0
   -4.9274    0.0440   40.6949 H   0  0  0  0  0  0  0  0  0  0  0  0
   -2.6981    5.5015   35.2117 H   0  0  0  0  0  0  0  0  0  0  0  0
  1  6  1  0
  1  9  1  0
  1 18  2  0
  2  4  1  0
  2  8  1  0
  2 20  1  0
  3  4  2  0
  3 18  1  0
  4  5  1  0
  5  6  2  0
  5  7  1  0
  7 11  1  0
  7 19  2  0
  8 17  1  0
  9 21  1  0
 10 13  2  0
 10 14  1  0
 12 13  1  0
 12 16  2  0
 12 25  1  0
 14 15  2  0
 15 16  1  0
 19 20  1  0
 20 24  2  0
 25 21  1  1
 22 25  2  0
 23 25  2  0
  3 26  1  0
  6 27  1  0
  8 28  1  0
  8 29  1  0
  9 30  1  0
  9 31  1  0
 10 32  1  0
 11 33  1  0
 11 34  1  0
 11 35  1  0
 13 36  1  0
 14 37  1  0
 15 38  1  0
 16 39  1  0
 17 40  1  0
 17 41  1  0
 17 42  1  0
 18 43  1  0
 19 44  1  0
 21 45  1  0
M  END
>  <filename_input>  (19) 
8AY3_OE3_docked.sdf

>  <pdb_id>  (19) 
8AY3_OE3

>  <pose_rank>  (19) 
18

>  <num_atoms_heavy>  (19) 
25

>  <num_torsions>  (19) 
5

>  <pose>  (19) 
[-2.5906738088360193, 3.5536652588167947, 36.68650557360693, -0.9897496344087866, 3.712869168241512, 0.561933126492503, 3.2470060760719393, 1.727740806551647, 2.7449587960197124, 0.0934497867610744, -1.6119530034972693]

>  <energy>  (19) 
-184.36607471578174

>  <inter_energy>  (19) 
-195.84090703455897

>  <intra_energy>  (19) 
11.906033807867832

>  <rmsd>  (19) 
9.22778

>  <sdf_rank>  (19) 
0

$$$$

     RDKit          3D

 45 47  0  0  0  0  0  0  0  0999 V2000
   10.3246   10.1598   23.1669 C   0  0  0  0  0  0  0  0  0  0  0  0
    9.5990   14.2730   23.7313 N   0  0  0  0  0  0  0  0  0  0  0  0
   11.1117   12.3548   23.7923 C   0  0  0  0  0  0  0  0  0  0  0  0
    9.8602   12.8986   23.5200 C   0  0  0  0  0  0  0  0  0  0  0  0
    8.8267   12.0698   23.0418 C   0  0  0  0  0  0  0  0  0  0  0  0
    9.0820   10.7051   22.8721 C   0  0  0  0  0  0  0  0  0  0  0  0
    7.5406   12.6800   22.7610 C   0  0  0  0  0  0  0  0  0  0  0  0
   10.6311   15.1364   24.3285 C   0  0  0  0  0  0  0  0  0  0  0  0
   10.5657    8.6743   23.0438 C   0  0  0  0  0  0  0  0  0  0  0  0
    6.0502    5.5525   22.0238 C   0  0  0  0  0  0  0  0  0  0  0  0
    6.4026   11.8444   22.2489 C   0  0  0  0  0  0  0  0  0  0  0  0
    8.1559    5.4597   23.1673 C   0  0  0  0  0  0  0  0  0  0  0  0
    7.1792    6.1870   22.4949 C   0  0  0  0  0  0  0  0  0  0  0  0
    5.8819    4.1957   22.2211 C   0  0  0  0  0  0  0  0  0  0  0  0
    6.8484    3.4678   22.8925 C   0  0  0  0  0  0  0  0  0  0  0  0
    7.9815    4.0950   23.3662 C   0  0  0  0  0  0  0  0  0  0  0  0
   10.5280   15.1526   25.8309 C   0  0  0  0  0  0  0  0  0  0  0  0
   11.3328   10.9992   23.6169 C   0  0  0  0  0  0  0  0  0  0  0  0
    7.3882   14.0002   22.9698 C   0  0  0  0  0  0  0  0  0  0  0  0
    8.3859   14.8677   23.4540 C   0  0  0  0  0  0  0  0  0  0  0  0
    9.4289    7.8387   23.4739 N   0  0  0  0  0  0  0  0  0  0  0  0
   10.6938    5.8153   22.9574 O   0  0  0  0  0  0  0  0  0  0  0  0
    9.6426    6.0898   25.1714 O   0  0  0  0  0  0  0  0  0  0  0  0
    8.2383   16.0774   23.6084 O   0  0  0  0  0  0  0  0  0  0  0  0
    9.5886    6.2584   23.7533 S   0  0  2  0  0  0  0  0  0  0  0  0
   11.9266   13.0027   24.1475 H   0  0  0  0  0  0  0  0  0  0  0  0
    8.2817   10.0501   22.4973 H   0  0  0  0  0  0  0  0  0  0  0  0
   11.6238   14.7594   24.0414 H   0  0  0  0  0  0  0  0  0  0  0  0
   10.4827   16.1618   23.9589 H   0  0  0  0  0  0  0  0  0  0  0  0
   10.7818    8.4463   21.9897 H   0  0  0  0  0  0  0  0  0  0  0  0
   11.4049    8.4342   23.7131 H   0  0  0  0  0  0  0  0  0  0  0  0
    5.2806    6.1283   21.4890 H   0  0  0  0  0  0  0  0  0  0  0  0
    5.8397   11.4311   23.0987 H   0  0  0  0  0  0  0  0  0  0  0  0
    5.7358   12.4691   21.6364 H   0  0  0  0  0  0  0  0  0  0  0  0
    6.7988   11.0211   21.6364 H   0  0  0  0  0  0  0  0  0  0  0  0
    7.3080    7.2683   22.3393 H   0  0  0  0  0  0  0  0  0  0  0  0
    4.9788    3.6935   21.8441 H   0  0  0  0  0  0  0  0  0  0  0  0
    6.7126    2.3874   23.0486 H   0  0  0  0  0  0  0  0  0  0  0  0
    8.7478    3.5151   23.9016 H   0  0  0  0  0  0  0  0  0  0  0  0
   11.5249   14.9956   26.2686 H   0  0  0  0  0  0  0  0  0  0  0  0
   10.1316   16.1243   26.1608 H   0  0  0  0  0  0  0  0  0  0  0  0
    9.8521   14.3499   26.1608 H   0  0  0  0  0  0  0  0  0  0  0  0
   12.3257   10.5806   23.8383 H   0  0  0  0  0  0  0  0  0  0  0  0
    6.4044   14.4374   22.7439 H   0  0  0  0  0  0  0  0  0  0  0  0
    9.0818    8.2530   24.3507 H   0  0  0  0  0  0  0  0  0  0  0  0
  1  6  1  0
  1  9  1  0
  1 18  2  0
  2  4  1  0
  2  8  1  0
  2 20  1  0
  3  4  2  0
  3 18  1  0
  4  5  1  0
  5  6  2  0
  5  7  1  0
  7 11  1  0
  7 19  2  0
  8 17  1  0
  9 21  1  0
 10 13  2  0
 10 14  1  0
 12 13  1  0
 12 16  2  0
 12 25  1  0
 14 15  2  0
 15 16  1  0
 19 20  1  0
 20 24  2  0
 25 21  1  1
 22 25  2  0
 23 25  2  0
  3 26  1  0
  6 27  1  0
  8 28  1  0
  8 29  1  0
  9 30  1  0
  9 31  1  0
 10 32  1  0
 11 33  1  0
 11 34  1  0
 11 35  1  0
 13 36  1  0
 14 37  1  0
 15 38  1  0
 16 39  1  0
 17 40  1  0
 17 41  1  0
 17 42  1  0
 18 43  1  0
 19 44  1  0
 21 45  1  0
M  END
>  <filename_input>  (20) 
8AY3_OE3_docked.sdf

>  <pdb_id>  (20) 
8AY3_OE3

>  <pose_rank>  (20) 
19

>  <num_atoms_heavy>  (20) 
25

>  <num_torsions>  (20) 
5

>  <pose>  (20) 
[10.32464703173704, 10.159818632172051, 23.166916506856566, -1.5426127039815871, -3.069361895801776, 0.1722257067223028, 3.260911395950747, -1.7052386505901977, 2.3169903073364755, -0.9877327270489983, 1.2642240540238328]

>  <energy>  (20) 
-156.57385008338252

>  <inter_energy>  (20) 
-150.92387846706677

>  <intra_energy>  (20) 
4.826832487265639

>  <rmsd>  (20) 
13.3762

>  <sdf_rank>  (20) 
0

$$$$

     RDKit          3D

 45 47  0  0  0  0  0  0  0  0999 V2000
   -1.0795   14.3463   40.0486 C   0  0  0  0  0  0  0  0  0  0  0  0
    1.2761   15.5973   36.7852 N   0  0  0  0  0  0  0  0  0  0  0  0
   -0.9121   15.1676   37.7845 C   0  0  0  0  0  0  0  0  0  0  0  0
    0.4754   15.2042   37.8835 C   0  0  0  0  0  0  0  0  0  0  0  0
    1.1006   14.8290   39.0884 C   0  0  0  0  0  0  0  0  0  0  0  0
    0.3037   14.4049   40.1569 C   0  0  0  0  0  0  0  0  0  0  0  0
    2.5488   14.8918   39.1514 C   0  0  0  0  0  0  0  0  0  0  0  0
    0.6512   15.8928   35.4854 C   0  0  0  0  0  0  0  0  0  0  0  0
   -1.9223   13.8221   41.1865 C   0  0  0  0  0  0  0  0  0  0  0  0
   -8.0608   13.3136   39.1978 C   0  0  0  0  0  0  0  0  0  0  0  0
    3.2687   14.5038   40.4110 C   0  0  0  0  0  0  0  0  0  0  0  0
   -5.8816   13.5985   40.1569 C   0  0  0  0  0  0  0  0  0  0  0  0
   -6.9204   12.7690   39.7473 C   0  0  0  0  0  0  0  0  0  0  0  0
   -8.1748   14.6820   39.0474 C   0  0  0  0  0  0  0  0  0  0  0  0
   -7.1432   15.5118   39.4496 C   0  0  0  0  0  0  0  0  0  0  0  0
   -5.9991   14.9748   40.0014 C   0  0  0  0  0  0  0  0  0  0  0  0
    0.5075   14.6467   34.6520 C   0  0  0  0  0  0  0  0  0  0  0  0
   -1.6738   14.7404   38.8591 C   0  0  0  0  0  0  0  0  0  0  0  0
    3.2295   15.2995   38.0650 C   0  0  0  0  0  0  0  0  0  0  0  0
    2.6521   15.6757   36.8372 C   0  0  0  0  0  0  0  0  0  0  0  0
   -3.3649   14.0958   41.0476 N   0  0  0  0  0  0  0  0  0  0  0  0
   -3.8845   11.9974   39.9129 O   0  0  0  0  0  0  0  0  0  0  0  0
   -4.7735   12.4400   42.1703 O   0  0  0  0  0  0  0  0  0  0  0  0
    3.2878   16.0763   35.8653 O   0  0  0  0  0  0  0  0  0  0  0  0
   -4.4444   12.9121   40.8621 S   0  0  2  0  0  0  0  0  0  0  0  0
   -1.4045   15.4785   36.8513 H   0  0  0  0  0  0  0  0  0  0  0  0
    0.7827   14.1116   41.1027 H   0  0  0  0  0  0  0  0  0  0  0  0
   -0.3451   16.3262   35.6570 H   0  0  0  0  0  0  0  0  0  0  0  0
    1.2952   16.6010   34.9434 H   0  0  0  0  0  0  0  0  0  0  0  0
   -1.7822   12.7327   41.2458 H   0  0  0  0  0  0  0  0  0  0  0  0
   -1.5876   14.3454   42.0943 H   0  0  0  0  0  0  0  0  0  0  0  0
   -8.8829   12.6565   38.8778 H   0  0  0  0  0  0  0  0  0  0  0  0
    2.6789   14.8217   41.2833 H   0  0  0  0  0  0  0  0  0  0  0  0
    3.4012   13.4121   40.4361 H   0  0  0  0  0  0  0  0  0  0  0  0
    4.2535   14.9933   40.4361 H   0  0  0  0  0  0  0  0  0  0  0  0
   -6.8315   11.6786   39.8619 H   0  0  0  0  0  0  0  0  0  0  0  0
   -9.0866   15.1123   38.6075 H   0  0  0  0  0  0  0  0  0  0  0  0
   -7.2359   16.6013   39.3291 H   0  0  0  0  0  0  0  0  0  0  0  0
   -5.1791   15.6359   40.3187 H   0  0  0  0  0  0  0  0  0  0  0  0
    0.4068   13.7731   35.3129 H   0  0  0  0  0  0  0  0  0  0  0  0
   -0.3868   14.7312   34.0172 H   0  0  0  0  0  0  0  0  0  0  0  0
    1.3977   14.5254   34.0172 H   0  0  0  0  0  0  0  0  0  0  0  0
   -2.7696   14.7132   38.7676 H   0  0  0  0  0  0  0  0  0  0  0  0
    4.3259   15.3425   38.1421 H   0  0  0  0  0  0  0  0  0  0  0  0
   -3.6438   14.6103   41.8952 H   0  0  0  0  0  0  0  0  0  0  0  0
  1  6  1  0
  1  9  1  0
  1 18  2  0
  2  4  1  0
  2  8  1  0
  2 20  1  0
  3  4  2  0
  3 18  1  0
  4  5  1  0
  5  6  2  0
  5  7  1  0
  7 11  1  0
  7 19  2  0
  8 17  1  0
  9 21  1  0
 10 13  2  0
 10 14  1  0
 12 13  1  0
 12 16  2  0
 12 25  1  0
 14 15  2  0
 15 16  1  0
 19 20  1  0
 20 24  2  0
 25 21  1  1
 22 25  2  0
 23 25  2  0
  3 26  1  0
  6 27  1  0
  8 28  1  0
  8 29  1  0
  9 30  1  0
  9 31  1  0
 10 32  1  0
 11 33  1  0
 11 34  1  0
 11 35  1  0
 13 36  1  0
 14 37  1  0
 15 38  1  0
 16 39  1  0
 17 40  1  0
 17 41  1  0
 17 42  1  0
 18 43  1  0
 19 44  1  0
 21 45  1  0
M  END
>  <filename_input>  (21) 
8AY3_OE3_docked.sdf

>  <pdb_id>  (21) 
8AY3_OE3

>  <pose_rank>  (21) 
20

>  <num_atoms_heavy>  (21) 
25

>  <num_torsions>  (21) 
5

>  <pose>  (21) 
[-1.0794784177932377, 14.346333581562838, 40.048587433723476, 4.517291805910246, -0.27320148658491283, -2.706177632979271, -2.98943046047734, 1.878577357976047, 0.9228812544636054, -1.2967363477231255, -2.087376390577029]

>  <energy>  (21) 
-155.1206899709272

>  <inter_energy>  (21) 
-151.00003845412581

>  <intra_energy>  (21) 
4.9420875215326046

>  <rmsd>  (21) 
12.1121

>  <sdf_rank>  (21) 
0

$$$$

     RDKit          3D

 45 47  0  0  0  0  0  0  0  0999 V2000
   -6.5107   -3.0945   26.9742 C   0  0  0  0  0  0  0  0  0  0  0  0
   -7.3365   -3.5496   31.0820 N   0  0  0  0  0  0  0  0  0  0  0  0
   -8.0891   -3.1006   28.8009 C   0  0  0  0  0  0  0  0  0  0  0  0
   -7.0744   -3.4207   29.6976 C   0  0  0  0  0  0  0  0  0  0  0  0
   -5.7591   -3.6043   29.2287 C   0  0  0  0  0  0  0  0  0  0  0  0
   -5.5013   -3.4372   27.8641 C   0  0  0  0  0  0  0  0  0  0  0  0
   -4.7339   -3.9472   30.1963 C   0  0  0  0  0  0  0  0  0  0  0  0
   -8.6806   -3.2600   31.6081 C   0  0  0  0  0  0  0  0  0  0  0  0
   -6.2053   -2.8508   25.5156 C   0  0  0  0  0  0  0  0  0  0  0  0
   -7.7405    2.4376   22.0361 C   0  0  0  0  0  0  0  0  0  0  0  0
   -3.3142   -4.1551   29.7527 C   0  0  0  0  0  0  0  0  0  0  0  0
   -7.2229    0.5061   23.3596 C   0  0  0  0  0  0  0  0  0  0  0  0
   -7.1286    1.2094   22.1631 C   0  0  0  0  0  0  0  0  0  0  0  0
   -8.4442    2.9764   23.0956 C   0  0  0  0  0  0  0  0  0  0  0  0
   -8.5382    2.2832   24.2894 C   0  0  0  0  0  0  0  0  0  0  0  0
   -7.9297    1.0530   24.4243 C   0  0  0  0  0  0  0  0  0  0  0  0
   -8.8302   -1.8016   31.9527 C   0  0  0  0  0  0  0  0  0  0  0  0
   -7.8019   -2.9392   27.4560 C   0  0  0  0  0  0  0  0  0  0  0  0
   -5.0778   -4.0719   31.4910 C   0  0  0  0  0  0  0  0  0  0  0  0
   -6.3741   -3.8900   32.0094 C   0  0  0  0  0  0  0  0  0  0  0  0
   -6.8858   -1.6743   24.9428 N   0  0  0  0  0  0  0  0  0  0  0  0
   -5.0439   -0.8421   23.5732 O   0  0  0  0  0  0  0  0  0  0  0  0
   -6.9949   -1.9126   22.5102 O   0  0  0  0  0  0  0  0  0  0  0  0
   -6.6762   -4.0393   33.1907 O   0  0  0  0  0  0  0  0  0  0  0  0
   -6.4595   -1.0516   23.5175 S   0  0  2  0  0  0  0  0  0  0  0  0
   -9.1210   -2.9756   29.1609 H   0  0  0  0  0  0  0  0  0  0  0  0
   -4.4775   -3.5804   27.4880 H   0  0  0  0  0  0  0  0  0  0  0  0
   -9.4286   -3.5271   30.8471 H   0  0  0  0  0  0  0  0  0  0  0  0
   -8.8298   -3.8505   32.5241 H   0  0  0  0  0  0  0  0  0  0  0  0
   -5.1199   -2.7066   25.4101 H   0  0  0  0  0  0  0  0  0  0  0  0
   -6.5747   -3.7284   24.9648 H   0  0  0  0  0  0  0  0  0  0  0  0
   -7.6682    2.9907   21.0881 H   0  0  0  0  0  0  0  0  0  0  0  0
   -2.6645   -4.2502   30.6353 H   0  0  0  0  0  0  0  0  0  0  0  0
   -3.2492   -5.0723   29.1490 H   0  0  0  0  0  0  0  0  0  0  0  0
   -2.9890   -3.2950   29.1490 H   0  0  0  0  0  0  0  0  0  0  0  0
   -6.5659    0.7852   21.3185 H   0  0  0  0  0  0  0  0  0  0  0  0
   -8.9303    3.9576   22.9902 H   0  0  0  0  0  0  0  0  0  0  0  0
   -9.0991    2.7139   25.1320 H   0  0  0  0  0  0  0  0  0  0  0  0
   -8.0037    0.5043   25.3748 H   0  0  0  0  0  0  0  0  0  0  0  0
   -8.8424   -1.6825   33.0462 H   0  0  0  0  0  0  0  0  0  0  0  0
   -7.9852   -1.2368   31.5318 H   0  0  0  0  0  0  0  0  0  0  0  0
   -9.7722   -1.4201   31.5318 H   0  0  0  0  0  0  0  0  0  0  0  0
   -8.6121   -2.6833   26.7574 H   0  0  0  0  0  0  0  0  0  0  0  0
   -4.2817   -4.3374   32.2021 H   0  0  0  0  0  0  0  0  0  0  0  0
   -7.8807   -1.9280   24.8609 H   0  0  0  0  0  0  0  0  0  0  0  0
  1  6  1  0
  1  9  1  0
  1 18  2  0
  2  4  1  0
  2  8  1  0
  2 20  1  0
  3  4  2  0
  3 18  1  0
  4  5  1  0
  5  6  2  0
  5  7  1  0
  7 11  1  0
  7 19  2  0
  8 17  1  0
  9 21  1  0
 10 13  2  0
 10 14  1  0
 12 13  1  0
 12 16  2  0
 12 25  1  0
 14 15  2  0
 15 16  1  0
 19 20  1  0
 20 24  2  0
 25 21  1  1
 22 25  2  0
 23 25  2  0
  3 26  1  0
  6 27  1  0
  8 28  1  0
  8 29  1  0
  9 30  1  0
  9 31  1  0
 10 32  1  0
 11 33  1  0
 11 34  1  0
 11 35  1  0
 13 36  1  0
 14 37  1  0
 15 38  1  0
 16 39  1  0
 17 40  1  0
 17 41  1  0
 17 42  1  0
 18 43  1  0
 19 44  1  0
 21 45  1  0
M  END
>  <filename_input>  (22) 
8AY3_OE3_docked.sdf

>  <pdb_id>  (22) 
8AY3_OE3

>  <pose_rank>  (22) 
21

>  <num_atoms_heavy>  (22) 
25

>  <num_torsions>  (22) 
5

>  <pose>  (22) 
[-6.510690645147866, -3.094481793290571, 26.974150914173837, 1.760350643636506, -1.2709321871581636, 0.7732037134039697, 3.2833636589566804, -3.4258424084855643, 1.8246902263215028, -1.436466474002475, -1.8499344837793508]

>  <energy>  (22) 
-154.46646477308883

>  <inter_energy>  (22) 
-154.87831011732806

>  <intra_energy>  (22) 
4.880581313345211

>  <rmsd>  (22) 
13.8446

>  <sdf_rank>  (22) 
0

$$$$

     RDKit          3D

 45 47  0  0  0  0  0  0  0  0999 V2000
   -6.4143   10.9819   24.2030 C   0  0  0  0  0  0  0  0  0  0  0  0
   -7.3663   13.8418   27.1489 N   0  0  0  0  0  0  0  0  0  0  0  0
   -6.6465   11.5907   26.5276 C   0  0  0  0  0  0  0  0  0  0  0  0
   -7.0193   12.8823   26.1686 C   0  0  0  0  0  0  0  0  0  0  0  0
   -7.0706   13.2426   24.8081 C   0  0  0  0  0  0  0  0  0  0  0  0
   -6.7632   12.2771   23.8438 C   0  0  0  0  0  0  0  0  0  0  0  0
   -7.4543   14.6026   24.4787 C   0  0  0  0  0  0  0  0  0  0  0  0
   -7.4211   13.4583   28.5691 C   0  0  0  0  0  0  0  0  0  0  0  0
   -6.1515    9.9321   23.1500 C   0  0  0  0  0  0  0  0  0  0  0  0
   -6.3156    4.3487   22.5437 C   0  0  0  0  0  0  0  0  0  0  0  0
   -7.5255   15.0423   23.0444 C   0  0  0  0  0  0  0  0  0  0  0  0
   -7.7280    6.2100   23.0828 C   0  0  0  0  0  0  0  0  0  0  0  0
   -6.4671    5.6938   22.8021 C   0  0  0  0  0  0  0  0  0  0  0  0
   -7.4133    3.5102   22.5575 C   0  0  0  0  0  0  0  0  0  0  0  0
   -8.6705    4.0187   22.8324 C   0  0  0  0  0  0  0  0  0  0  0  0
   -8.8305    5.3634   23.0931 C   0  0  0  0  0  0  0  0  0  0  0  0
   -6.1031   13.7079   29.2540 C   0  0  0  0  0  0  0  0  0  0  0  0
   -6.3506   10.6562   25.5496 C   0  0  0  0  0  0  0  0  0  0  0  0
   -7.7457   15.4556   25.4774 C   0  0  0  0  0  0  0  0  0  0  0  0
   -7.7178   15.1414   26.8496 C   0  0  0  0  0  0  0  0  0  0  0  0
   -6.4500    8.5536   23.5815 N   0  0  0  0  0  0  0  0  0  0  0  0
   -8.5583    8.0316   24.6964 O   0  0  0  0  0  0  0  0  0  0  0  0
   -8.5215    8.5230   22.2800 O   0  0  0  0  0  0  0  0  0  0  0  0
   -7.9561   15.9426   27.7498 O   0  0  0  0  0  0  0  0  0  0  0  0
   -7.9191    7.9080   23.4208 S   0  0  2  0  0  0  0  0  0  0  0  0
   -6.5866   11.3116   27.5899 H   0  0  0  0  0  0  0  0  0  0  0  0
   -6.7986   12.5495   22.7786 H   0  0  0  0  0  0  0  0  0  0  0  0
   -8.2026   14.0485   29.0699 H   0  0  0  0  0  0  0  0  0  0  0  0
   -7.6463   12.3834   28.6303 H   0  0  0  0  0  0  0  0  0  0  0  0
   -6.7737   10.1609   22.2722 H   0  0  0  0  0  0  0  0  0  0  0  0
   -5.0742    9.9679   22.9305 H   0  0  0  0  0  0  0  0  0  0  0  0
   -5.3173    3.9414   22.3257 H   0  0  0  0  0  0  0  0  0  0  0  0
   -7.7012   16.1273   23.0019 H   0  0  0  0  0  0  0  0  0  0  0  0
   -6.5771   14.8043   22.5405 H   0  0  0  0  0  0  0  0  0  0  0  0
   -8.3503   14.5172   22.5405 H   0  0  0  0  0  0  0  0  0  0  0  0
   -5.5913    6.3591   22.7865 H   0  0  0  0  0  0  0  0  0  0  0  0
   -7.2878    2.4373   22.3498 H   0  0  0  0  0  0  0  0  0  0  0  0
   -9.5434    3.3495   22.8430 H   0  0  0  0  0  0  0  0  0  0  0  0
   -9.8309    5.7663   23.3093 H   0  0  0  0  0  0  0  0  0  0  0  0
   -6.2456   13.6810   30.3444 H   0  0  0  0  0  0  0  0  0  0  0  0
   -5.3835   12.9301   28.9588 H   0  0  0  0  0  0  0  0  0  0  0  0
   -5.7177   14.6951   28.9588 H   0  0  0  0  0  0  0  0  0  0  0  0
   -6.0599    9.6376   25.8459 H   0  0  0  0  0  0  0  0  0  0  0  0
   -8.0286   16.4816   25.1994 H   0  0  0  0  0  0  0  0  0  0  0  0
   -5.8073    7.9420   23.0582 H   0  0  0  0  0  0  0  0  0  0  0  0
  1  6  1  0
  1  9  1  0
  1 18  2  0
  2  4  1  0
  2  8  1  0
  2 20  1  0
  3  4  2  0
  3 18  1  0
  4  5  1  0
  5  6  2  0
  5  7  1  0
  7 11  1  0
  7 19  2  0
  8 17  1  0
  9 21  1  0
 10 13  2  0
 10 14  1  0
 12 13  1  0
 12 16  2  0
 12 25  1  0
 14 15  2  0
 15 16  1  0
 19 20  1  0
 20 24  2  0
 25 21  1  1
 22 25  2  0
 23 25  2  0
  3 26  1  0
  6 27  1  0
  8 28  1  0
  8 29  1  0
  9 30  1  0
  9 31  1  0
 10 32  1  0
 11 33  1  0
 11 34  1  0
 11 35  1  0
 13 36  1  0
 14 37  1  0
 15 38  1  0
 16 39  1  0
 17 40  1  0
 17 41  1  0
 17 42  1  0
 18 43  1  0
 19 44  1  0
 21 45  1  0
M  END
>  <filename_input>  (23) 
8AY3_OE3_docked.sdf

>  <pdb_id>  (23) 
8AY3_OE3

>  <pose_rank>  (23) 
22

>  <num_atoms_heavy>  (23) 
25

>  <num_torsions>  (23) 
5

>  <pose>  (23) 
[-6.4143453358840645, 10.981911929047591, 24.20296256599713, 1.5722254001454483, 1.395530505019732, 1.216267631915603, 0.14577755808713524, 8.889276852276554, -5.829325532706888, -8.536837562192089, -5.266693583344677]

>  <energy>  (23) 
-144.93630515133995

>  <inter_energy>  (23) 
-145.39638819568876

>  <intra_energy>  (23) 
6.43123063373425

>  <rmsd>  (23) 
13.4546

>  <sdf_rank>  (23) 
0

$$$$

     RDKit          3D

 45 47  0  0  0  0  0  0  0  0999 V2000
   -2.4935    4.5370   41.2521 C   0  0  0  0  0  0  0  0  0  0  0  0
   -1.8112    8.6417   40.5813 N   0  0  0  0  0  0  0  0  0  0  0  0
   -2.9983    6.8470   41.7396 C   0  0  0  0  0  0  0  0  0  0  0  0
   -2.0296    7.2666   40.8331 C   0  0  0  0  0  0  0  0  0  0  0  0
   -1.2616    6.3119   40.1386 C   0  0  0  0  0  0  0  0  0  0  0  0
   -1.5101    4.9541   40.3647 C   0  0  0  0  0  0  0  0  0  0  0  0
   -0.2555    6.7932   39.2105 C   0  0  0  0  0  0  0  0  0  0  0  0
   -2.6718    9.6533   41.2163 C   0  0  0  0  0  0  0  0  0  0  0  0
   -2.7970    3.0693   41.4352 C   0  0  0  0  0  0  0  0  0  0  0  0
   -8.2960    2.1468   41.2805 C   0  0  0  0  0  0  0  0  0  0  0  0
    0.5928    5.8202   38.4429 C   0  0  0  0  0  0  0  0  0  0  0  0
   -6.1574    1.0634   41.2261 C   0  0  0  0  0  0  0  0  0  0  0  0
   -6.9657    2.1536   40.9208 C   0  0  0  0  0  0  0  0  0  0  0  0
   -8.8299    1.0620   41.9484 C   0  0  0  0  0  0  0  0  0  0  0  0
   -8.0299   -0.0237   42.2581 C   0  0  0  0  0  0  0  0  0  0  0  0
   -6.6979   -0.0252   41.9007 C   0  0  0  0  0  0  0  0  0  0  0  0
   -3.8573    9.9849   40.3487 C   0  0  0  0  0  0  0  0  0  0  0  0
   -3.2229    5.4954   41.9398 C   0  0  0  0  0  0  0  0  0  0  0  0
   -0.1006    8.1200   39.0504 C   0  0  0  0  0  0  0  0  0  0  0  0
   -0.8481    9.1120   39.7134 C   0  0  0  0  0  0  0  0  0  0  0  0
   -3.9818    2.5987   40.6934 N   0  0  0  0  0  0  0  0  0  0  0  0
   -4.3920    0.5514   39.4282 O   0  0  0  0  0  0  0  0  0  0  0  0
   -3.7296    0.4316   41.8007 O   0  0  0  0  0  0  0  0  0  0  0  0
   -0.6712   10.3201   39.5786 O   0  0  0  0  0  0  0  0  0  0  0  0
   -4.4786    1.0659   40.7619 S   0  0  2  0  0  0  0  0  0  0  0  0
   -3.5866    7.5901   42.2979 H   0  0  0  0  0  0  0  0  0  0  0  0
   -0.9142    4.2010   39.8284 H   0  0  0  0  0  0  0  0  0  0  0  0
   -3.0309    9.2642   42.1805 H   0  0  0  0  0  0  0  0  0  0  0  0
   -2.0811   10.5696   41.3625 H   0  0  0  0  0  0  0  0  0  0  0  0
   -1.9251    2.4917   41.0945 H   0  0  0  0  0  0  0  0  0  0  0  0
   -3.0148    2.9229   42.5035 H   0  0  0  0  0  0  0  0  0  0  0  0
   -8.9347    3.0081   41.0350 H   0  0  0  0  0  0  0  0  0  0  0  0
    1.1483    5.1832   39.1470 H   0  0  0  0  0  0  0  0  0  0  0  0
   -0.0512    5.1922   37.8098 H   0  0  0  0  0  0  0  0  0  0  0  0
    1.3027    6.3727   37.8098 H   0  0  0  0  0  0  0  0  0  0  0  0
   -6.5431    3.0209   40.3924 H   0  0  0  0  0  0  0  0  0  0  0  0
   -9.8921    1.0612   42.2344 H   0  0  0  0  0  0  0  0  0  0  0  0
   -8.4569   -0.8867   42.7900 H   0  0  0  0  0  0  0  0  0  0  0  0
   -6.0629   -0.8882   42.1496 H   0  0  0  0  0  0  0  0  0  0  0  0
   -4.7213   10.2266   40.9852 H   0  0  0  0  0  0  0  0  0  0  0  0
   -3.6163   10.8502   39.7136 H   0  0  0  0  0  0  0  0  0  0  0  0
   -4.1002    9.1203   39.7136 H   0  0  0  0  0  0  0  0  0  0  0  0
   -3.9935    5.1762   42.6569 H   0  0  0  0  0  0  0  0  0  0  0  0
    0.6726    8.4570   38.3444 H   0  0  0  0  0  0  0  0  0  0  0  0
   -4.7726    3.1731   41.0184 H   0  0  0  0  0  0  0  0  0  0  0  0
  1  6  1  0
  1  9  1  0
  1 18  2  0
  2  4  1  0
  2  8  1  0
  2 20  1  0
  3  4  2  0
  3 18  1  0
  4  5  1  0
  5  6  2  0
  5  7  1  0
  7 11  1  0
  7 19  2  0
  8 17  1  0
  9 21  1  0
 10 13  2  0
 10 14  1  0
 12 13  1  0
 12 16  2  0
 12 25  1  0
 14 15  2  0
 15 16  1  0
 19 20  1  0
 20 24  2  0
 25 21  1  6
 22 25  2  0
 23 25  2  0
  3 26  1  0
  6 27  1  0
  8 28  1  0
  8 29  1  0
  9 30  1  0
  9 31  1  0
 10 32  1  0
 11 33  1  0
 11 34  1  0
 11 35  1  0
 13 36  1  0
 14 37  1  0
 15 38  1  0
 16 39  1  0
 17 40  1  0
 17 41  1  0
 17 42  1  0
 18 43  1  0
 19 44  1  0
 21 45  1  0
M  END
>  <filename_input>  (24) 
8AY3_OE3_docked.sdf

>  <pdb_id>  (24) 
8AY3_OE3

>  <pose_rank>  (24) 
23

>  <num_atoms_heavy>  (24) 
25

>  <num_torsions>  (24) 
5

>  <pose>  (24) 
[-2.4934859214890466, 4.537022315110489, 41.2520618714075, -3.2626425579539577, -2.790211101821884, -2.980680850774925, 3.2325371750570135, -9.062982133672202, 2.0664427987111558, 3.6857381212827693, -4.620479653285529]

>  <energy>  (24) 
-120.63734522352567

>  <inter_energy>  (24) 
-123.22390459460703

>  <intra_energy>  (24) 
4.846789128465918

>  <rmsd>  (24) 
10.8948

>  <sdf_rank>  (24) 
0

$$$$

     RDKit          3D

 45 47  0  0  0  0  0  0  0  0999 V2000
   -1.1011   11.0255   26.9256 C   0  0  0  0  0  0  0  0  0  0  0  0
   -2.3226   14.0089   24.2106 N   0  0  0  0  0  0  0  0  0  0  0  0
   -1.3722   11.8020   24.6558 C   0  0  0  0  0  0  0  0  0  0  0  0
   -1.9338   12.9904   25.1125 C   0  0  0  0  0  0  0  0  0  0  0  0
   -2.1055   13.1966   26.4951 C   0  0  0  0  0  0  0  0  0  0  0  0
   -1.6831   12.2008   27.3820 C   0  0  0  0  0  0  0  0  0  0  0  0
   -2.7044   14.4455   26.9272 C   0  0  0  0  0  0  0  0  0  0  0  0
   -2.0571   13.8593   22.7704 C   0  0  0  0  0  0  0  0  0  0  0  0
   -0.5881    9.9893   27.8967 C   0  0  0  0  0  0  0  0  0  0  0  0
   -0.2456    7.1716   31.5874 C   0  0  0  0  0  0  0  0  0  0  0  0
   -2.9118   14.7190   28.3893 C   0  0  0  0  0  0  0  0  0  0  0  0
    1.0201    7.7054   29.6219 C   0  0  0  0  0  0  0  0  0  0  0  0
    0.3616    8.1081   30.7791 C   0  0  0  0  0  0  0  0  0  0  0  0
   -0.1989    5.8317   31.2550 C   0  0  0  0  0  0  0  0  0  0  0  0
    0.4579    5.4247   30.1071 C   0  0  0  0  0  0  0  0  0  0  0  0
    1.0672    6.3558   29.2923 C   0  0  0  0  0  0  0  0  0  0  0  0
   -3.2720   13.3501   22.0405 C   0  0  0  0  0  0  0  0  0  0  0  0
   -0.9613   10.8361   25.5588 C   0  0  0  0  0  0  0  0  0  0  0  0
   -3.0655   15.3488   25.9980 C   0  0  0  0  0  0  0  0  0  0  0  0
   -2.9068   15.1935   24.6077 C   0  0  0  0  0  0  0  0  0  0  0  0
    0.6924    9.3720   27.5031 N   0  0  0  0  0  0  0  0  0  0  0  0
    2.8212    8.2327   27.8643 O   0  0  0  0  0  0  0  0  0  0  0  0
    2.1012   10.0296   29.3922 O   0  0  0  0  0  0  0  0  0  0  0  0
   -3.2717   16.0160   23.7715 O   0  0  0  0  0  0  0  0  0  0  0  0
    1.7782    8.8893   28.5935 S   0  0  2  0  0  0  0  0  0  0  0  0
   -1.2545   11.6297   23.5758 H   0  0  0  0  0  0  0  0  0  0  0  0
   -1.8147   12.3519   28.4636 H   0  0  0  0  0  0  0  0  0  0  0  0
   -1.7729   14.8373   22.3548 H   0  0  0  0  0  0  0  0  0  0  0  0
   -1.2433   13.1305   22.6410 H   0  0  0  0  0  0  0  0  0  0  0  0
   -0.4516   10.4720   28.8757 H   0  0  0  0  0  0  0  0  0  0  0  0
   -1.3341    9.1813   27.9196 H   0  0  0  0  0  0  0  0  0  0  0  0
   -0.7692    7.4921   32.5001 H   0  0  0  0  0  0  0  0  0  0  0  0
   -2.3524   13.9813   28.9833 H   0  0  0  0  0  0  0  0  0  0  0  0
   -2.5518   15.7307   28.6277 H   0  0  0  0  0  0  0  0  0  0  0  0
   -3.9831   14.6454   28.6277 H   0  0  0  0  0  0  0  0  0  0  0  0
    0.3256    9.1739   31.0490 H   0  0  0  0  0  0  0  0  0  0  0  0
   -0.6842    5.0874   31.9035 H   0  0  0  0  0  0  0  0  0  0  0  0
    0.4940    4.3573   29.8441 H   0  0  0  0  0  0  0  0  0  0  0  0
    1.5906    6.0303   28.3813 H   0  0  0  0  0  0  0  0  0  0  0  0
   -4.0314   13.0319   22.7699 H   0  0  0  0  0  0  0  0  0  0  0  0
   -3.6832   14.1516   21.4092 H   0  0  0  0  0  0  0  0  0  0  0  0
   -2.9889   12.4949   21.4092 H   0  0  0  0  0  0  0  0  0  0  0  0
   -0.5162    9.9020   25.1856 H   0  0  0  0  0  0  0  0  0  0  0  0
   -3.5216   16.2847   26.3532 H   0  0  0  0  0  0  0  0  0  0  0  0
    0.4521    8.5391   26.9469 H   0  0  0  0  0  0  0  0  0  0  0  0
  1  6  1  0
  1  9  1  0
  1 18  2  0
  2  4  1  0
  2  8  1  0
  2 20  1  0
  3  4  2  0
  3 18  1  0
  4  5  1  0
  5  6  2  0
  5  7  1  0
  7 11  1  0
  7 19  2  0
  8 17  1  0
  9 21  1  0
 10 13  2  0
 10 14  1  0
 12 13  1  0
 12 16  2  0
 12 25  1  0
 14 15  2  0
 15 16  1  0
 19 20  1  0
 20 24  2  0
 25 21  1  6
 22 25  2  0
 23 25  2  0
  3 26  1  0
  6 27  1  0
  8 28  1  0
  8 29  1  0
  9 30  1  0
  9 31  1  0
 10 32  1  0
 11 33  1  0
 11 34  1  0
 11 35  1  0
 13 36  1  0
 14 37  1  0
 15 38  1  0
 16 39  1  0
 17 40  1  0
 17 41  1  0
 17 42  1  0
 18 43  1  0
 19 44  1  0
 21 45  1  0
M  END
>  <filename_input>  (25) 
8AY3_OE3_docked.sdf

>  <pdb_id>  (25) 
8AY3_OE3

>  <pose_rank>  (25) 
24

>  <num_atoms_heavy>  (25) 
25

>  <num_torsions>  (25) 
5

>  <pose>  (25) 
[-1.1011488863869756, 11.025501077993155, 26.925595477330795, -0.7898348329696324, -1.3643299102930653, 1.9632999688747905, 0.23850477326595193, -3.472885193142592, 1.4918440075698376, 2.513483711837146, -0.3910508738192227]

>  <energy>  (25) 
-27.3866133532447

>  <inter_energy>  (25) 
-44.226414959630475

>  <intra_energy>  (25) 
8.305488315563085

>  <rmsd>  (25) 
8.87728

>  <sdf_rank>  (25) 
0

$$$$

     RDKit          3D

 45 47  0  0  0  0  0  0  0  0999 V2000
   -0.7020    5.3620   31.2710 C   0  0  0  0  0  0  0  0  0  0  0  0
    2.6930    7.2830   29.6750 N   0  0  0  0  0  0  0  0  0  0  0  0
    0.3500    7.3380   30.3670 C   0  0  0  0  0  0  0  0  0  0  0  0
    1.5550    6.6550   30.2340 C   0  0  0  0  0  0  0  0  0  0  0  0
    1.6460    5.3110   30.6450 C   0  0  0  0  0  0  0  0  0  0  0  0
    0.5060    4.6860   31.1610 C   0  0  0  0  0  0  0  0  0  0  0  0
    2.9240    4.6400   30.4980 C   0  0  0  0  0  0  0  0  0  0  0  0
    2.5930    8.6520   29.1430 C   0  0  0  0  0  0  0  0  0  0  0  0
   -1.9410    4.6550   31.7660 C   0  0  0  0  0  0  0  0  0  0  0  0
    2.3790    4.4230   34.9390 C   0  0  0  0  0  0  0  0  0  0  0  0
    3.0790    3.2070   30.9200 C   0  0  0  0  0  0  0  0  0  0  0  0
    0.1760    5.2800   34.5360 C   0  0  0  0  0  0  0  0  0  0  0  0
    1.0190    4.2190   34.8500 C   0  0  0  0  0  0  0  0  0  0  0  0
    2.9090    5.6800   34.7220 C   0  0  0  0  0  0  0  0  0  0  0  0
    2.0750    6.7400   34.4130 C   0  0  0  0  0  0  0  0  0  0  0  0
    0.7130    6.5440   34.3210 C   0  0  0  0  0  0  0  0  0  0  0  0
    2.7440    9.6760   30.2370 C   0  0  0  0  0  0  0  0  0  0  0  0
   -0.7620    6.6910   30.8790 C   0  0  0  0  0  0  0  0  0  0  0  0
    3.9600    5.3220   29.9770 C   0  0  0  0  0  0  0  0  0  0  0  0
    3.9170    6.6610   29.5440 C   0  0  0  0  0  0  0  0  0  0  0  0
   -1.8150    4.0910   33.1230 N   0  0  0  0  0  0  0  0  0  0  0  0
   -2.1570    6.2850   34.1380 O   0  0  0  0  0  0  0  0  0  0  0  0
   -1.9630    4.2780   35.5580 O   0  0  0  0  0  0  0  0  0  0  0  0
    4.8820    7.2780   29.1000 O   0  0  0  0  0  0  0  0  0  0  0  0
   -1.5420    5.0210   34.4120 S   0  0  2  0  0  0  0  0  0  0  0  0
    0.2807    8.3935   30.0650 H   0  0  0  0  0  0  0  0  0  0  0  0
    0.5677    3.6371   31.4865 H   0  0  0  0  0  0  0  0  0  0  0  0
    3.3863    8.8053   28.3966 H   0  0  0  0  0  0  0  0  0  0  0  0
    1.6000    8.7755   28.6861 H   0  0  0  0  0  0  0  0  0  0  0  0
   -2.7718    5.3760   31.7681 H   0  0  0  0  0  0  0  0  0  0  0  0
   -2.1134    3.8073   31.0866 H   0  0  0  0  0  0  0  0  0  0  0  0
    3.0446    3.5821   35.1836 H   0  0  0  0  0  0  0  0  0  0  0  0
    3.0855    3.1469   32.0183 H   0  0  0  0  0  0  0  0  0  0  0  0
    2.2396    2.6157   30.5254 H   0  0  0  0  0  0  0  0  0  0  0  0
    4.0254    2.8089   30.5254 H   0  0  0  0  0  0  0  0  0  0  0  0
    0.6002    3.2174   35.0272 H   0  0  0  0  0  0  0  0  0  0  0  0
    3.9951    5.8385   34.7949 H   0  0  0  0  0  0  0  0  0  0  0  0
    2.4989    7.7403   34.2405 H   0  0  0  0  0  0  0  0  0  0  0  0
    0.0513    7.3883   34.0774 H   0  0  0  0  0  0  0  0  0  0  0  0
    2.6709    9.1800   31.2161 H   0  0  0  0  0  0  0  0  0  0  0  0
    3.7242   10.1669   30.1470 H   0  0  0  0  0  0  0  0  0  0  0  0
    1.9472   10.4290   30.1470 H   0  0  0  0  0  0  0  0  0  0  0  0
   -1.7097    7.2408   30.9766 H   0  0  0  0  0  0  0  0  0  0  0  0
    4.9183    4.7904   29.8816 H   0  0  0  0  0  0  0  0  0  0  0  0
   -2.6952    3.5899   33.3100 H   0  0  0  0  0  0  0  0  0  0  0  0
  1  6  1  0
  1  9  1  0
  1 18  2  0
  2  4  1  0
  2  8  1  0
  2 20  1  0
  3  4  2  0
  3 18  1  0
  4  5  1  0
  5  6  2  0
  5  7  1  0
  7 11  1  0
  7 19  2  0
  8 17  1  0
  9 21  1  0
 10 13  2  0
 10 14  1  0
 12 13  1  0
 12 16  2  0
 12 25  1  0
 14 15  2  0
 15 16  1  0
 19 20  1  0
 20 24  2  0
 25 21  1  6
 22 25  2  0
 23 25  2  0
  3 26  1  0
  6 27  1  0
  8 28  1  0
  8 29  1  0
  9 30  1  0
  9 31  1  0
 10 32  1  0
 11 33  1  0
 11 34  1  0
 11 35  1  0
 13 36  1  0
 14 37  1  0
 15 38  1  0
 16 39  1  0
 17 40  1  0
 17 41  1  0
 17 42  1  0
 18 43  1  0
 19 44  1  0
 21 45  1  0
M  END
>  <filename_input>  (26) 
8AY3_OE3_docked.sdf

>  <pdb_id>  (26) 
8AY3_OE3

>  <pose_rank>  (26) 
25

>  <num_atoms_heavy>  (26) 
25

>  <num_torsions>  (26) 
5

>  <pose>  (26) 
[-0.702, 5.362, 31.271, 1e-06, 1e-06, 1e-06, 0.0, 0.0, 0.0, 0.0, 0.0]

>  <energy>  (26) 
-757.1798859645986

>  <inter_energy>  (26) 
-774.2212912406274

>  <intra_energy>  (26) 
20.636034798094258

>  <rmsd>  (26) 
0.0

>  <sdf_rank>  (26) 
0

$$$$
