
     RDKit          3D

 35 36  0  0  0  0  0  0  0  0999 V2000
   27.3227   -5.7499    2.2255 C   0  0  0  0  0  0  0  0  0  0  0  0
   26.7158   -4.6392    2.7845 C   0  0  0  0  0  0  0  0  0  0  0  0
   25.4233   -4.7637    3.2790 C   0  0  0  0  0  0  0  0  0  0  0  0
   24.7782   -5.9915    3.1922 C   0  0  0  0  0  0  0  0  0  0  0  0
   26.6423   -6.9512    2.1616 C   0  0  0  0  0  0  0  0  0  0  0  0
   27.1774   -2.5491    1.4336 N   0  0  0  0  0  0  0  0  0  0  0  0
   28.0992   -1.4737    1.2097 C   0  0  0  0  0  0  0  0  0  0  0  0
   29.5540   -1.6006    0.8181 C   0  0  0  0  0  0  0  0  0  0  0  0
   30.1984   -2.8944    0.4714 O   0  0  0  0  0  0  0  0  0  0  0  0
   28.0013   -0.1252    1.4451 C   0  0  0  0  0  0  0  0  0  0  0  0
   29.2129    0.4552    1.1287 O   0  0  0  0  0  0  0  0  0  0  0  0
   30.1622   -0.4028    0.7501 N   0  0  0  0  0  0  0  0  0  0  0  0
   27.2989   -8.1609    1.5501 C   0  0  0  0  0  0  0  0  0  0  0  0
   27.4867   -3.3393    2.8416 C   0  0  0  0  0  0  0  0  0  0  0  0
   24.6822   -3.6015    3.9046 C   0  0  0  0  0  0  0  0  0  0  0  0
   25.3871   -7.0491    2.6435 N   0  0  0  0  0  0  0  0  0  0  0  0
   28.5598   -5.6609    1.7454 O   0  0  0  0  0  0  0  0  0  0  0  0
   22.2562   -1.2614    3.9304 O   0  0  0  0  0  0  0  0  0  0  0  0
   24.6602   -0.7037    3.7375 O   0  0  0  0  0  0  0  0  0  0  0  0
   23.2468   -0.8415    1.7048 O   0  0  0  0  0  0  0  0  0  0  0  0
   23.8455   -2.9732    2.9365 O   0  0  0  0  0  0  0  0  0  0  0  0
   23.4963   -1.4040    3.0819 P   0  0  2  0  0  0  0  0  0  0  0  0
   23.7539   -6.0952    3.5796 H   0  0  0  0  0  0  0  0  0  0  0  0
   26.2218   -2.1664    1.4697 H   0  0  0  0  0  0  0  0  0  0  0  0
   27.2791   -3.2225    0.6609 H   0  0  0  0  0  0  0  0  0  0  0  0
   31.1561   -2.9192    0.2219 H   0  0  0  0  0  0  0  0  0  0  0  0
   27.1117    0.4016    1.8208 H   0  0  0  0  0  0  0  0  0  0  0  0
   27.6596   -8.8255    2.3489 H   0  0  0  0  0  0  0  0  0  0  0  0
   26.5689   -8.6988    0.9273 H   0  0  0  0  0  0  0  0  0  0  0  0
   28.1476   -7.8419    0.9273 H   0  0  0  0  0  0  0  0  0  0  0  0
   27.1506   -2.7358    3.6976 H   0  0  0  0  0  0  0  0  0  0  0  0
   28.5643   -3.5218    2.9663 H   0  0  0  0  0  0  0  0  0  0  0  0
   24.0629   -3.9702    4.7356 H   0  0  0  0  0  0  0  0  0  0  0  0
   25.4128   -2.8686    4.2775 H   0  0  0  0  0  0  0  0  0  0  0  0
   28.9939   -6.4557    1.3455 H   0  0  0  0  0  0  0  0  0  0  0  0
  1  2  2  0
  1  5  1  0
  1 17  1  0
  2  3  1  0
  2 14  1  0
  3  4  2  0
  3 15  1  0
  4 16  1  0
  5 13  1  0
  5 16  2  0
  6  7  1  0
  6 14  1  0
  7  8  1  0
  7 10  2  0
  8  9  1  0
  8 12  2  0
 10 11  1  0
 11 12  1  0
 15 21  1  0
 22 18  1  1
 19 22  1  0
 20 22  2  0
 21 22  1  0
  4 23  1  0
  6 24  1  0
  6 25  1  0
  9 26  1  0
 10 27  1  0
 13 28  1  0
 13 29  1  0
 13 30  1  0
 14 31  1  0
 14 32  1  0
 15 33  1  0
 15 34  1  0
 17 35  1  0
M  CHG  3   6   1  18  -1  19  -1
M  END
>  <filename_input>  (1) 
8B8H_OJQ_docked.sdf

>  <pdb_id>  (1) 
8B8H_OJQ

>  <pose_rank>  (1) 
0

>  <num_atoms_heavy>  (1) 
22

>  <num_torsions>  (1) 
6

>  <pose>  (1) 
[27.322696200451595, -5.7499030008974445, 2.2254807002578203, 3.6764931663818827, 4.966327682809018, 0.9929842716266966, -6.011516970631301, 0.18277224610288206, -0.18081193762397513, 0.6376605197212825, 0.598038829721423, -0.6544323268692525]

>  <energy>  (1) 
-1021.3664620254734

>  <inter_energy>  (1) 
-1005.4585511730573

>  <intra_energy>  (1) 
0.23003865264452006

>  <rmsd>  (1) 
0.409066

>  <sdf_rank>  (1) 
0

$$$$

     RDKit          3D

 35 36  0  0  0  0  0  0  0  0999 V2000
   27.2596   -5.9437    2.0006 C   0  0  0  0  0  0  0  0  0  0  0  0
   26.8694   -4.8066    2.6856 C   0  0  0  0  0  0  0  0  0  0  0  0
   25.6042   -4.7749    3.2590 C   0  0  0  0  0  0  0  0  0  0  0  0
   24.7690   -5.8772    3.1230 C   0  0  0  0  0  0  0  0  0  0  0  0
   26.3951   -7.0166    1.8919 C   0  0  0  0  0  0  0  0  0  0  0  0
   27.5606   -2.6885    1.4847 N   0  0  0  0  0  0  0  0  0  0  0  0
   28.5901   -1.7047    1.3160 C   0  0  0  0  0  0  0  0  0  0  0  0
   28.4395   -0.3434    0.6756 C   0  0  0  0  0  0  0  0  0  0  0  0
   27.1321    0.2202    0.2487 O   0  0  0  0  0  0  0  0  0  0  0  0
   29.9490   -1.7668    1.4981 C   0  0  0  0  0  0  0  0  0  0  0  0
   30.4902   -0.5581    1.1090 O   0  0  0  0  0  0  0  0  0  0  0  0
   29.6111    0.3143    0.6124 N   0  0  0  0  0  0  0  0  0  0  0  0
   26.8156   -8.2541    1.1434 C   0  0  0  0  0  0  0  0  0  0  0  0
   27.8383   -3.6500    2.7889 C   0  0  0  0  0  0  0  0  0  0  0  0
   25.0937   -3.5724    4.0237 C   0  0  0  0  0  0  0  0  0  0  0  0
   25.1702   -6.9633    2.4522 N   0  0  0  0  0  0  0  0  0  0  0  0
   28.4654   -6.0032    1.4427 O   0  0  0  0  0  0  0  0  0  0  0  0
   24.5425    0.0358    3.4744 O   0  0  0  0  0  0  0  0  0  0  0  0
   23.5245   -1.3592    1.7009 O   0  0  0  0  0  0  0  0  0  0  0  0
   22.9512   -1.7563    4.0805 O   0  0  0  0  0  0  0  0  0  0  0  0
   25.2586   -2.3890    3.2464 O   0  0  0  0  0  0  0  0  0  0  0  0
   24.0371   -1.3414    3.1192 P   0  0  2  0  0  0  0  0  0  0  0  0
   23.7652   -5.8567    3.5725 H   0  0  0  0  0  0  0  0  0  0  0  0
   26.6584   -2.2079    1.6115 H   0  0  0  0  0  0  0  0  0  0  0  0
   27.5489   -3.2852    0.6452 H   0  0  0  0  0  0  0  0  0  0  0  0
   27.0918    1.1182   -0.1660 H   0  0  0  0  0  0  0  0  0  0  0  0
   30.5094   -2.6299    1.8867 H   0  0  0  0  0  0  0  0  0  0  0  0
   27.0838   -9.0434    1.8612 H   0  0  0  0  0  0  0  0  0  0  0  0
   25.9847   -8.6004    0.5112 H   0  0  0  0  0  0  0  0  0  0  0  0
   27.6855   -8.0224    0.5112 H   0  0  0  0  0  0  0  0  0  0  0  0
   27.6624   -3.0891    3.7186 H   0  0  0  0  0  0  0  0  0  0  0  0
   28.8795   -4.0045    2.8065 H   0  0  0  0  0  0  0  0  0  0  0  0
   24.0265   -3.7123    4.2508 H   0  0  0  0  0  0  0  0  0  0  0  0
   25.6660   -3.4713    4.9577 H   0  0  0  0  0  0  0  0  0  0  0  0
   28.7445   -6.8169    0.9526 H   0  0  0  0  0  0  0  0  0  0  0  0
  1  2  2  0
  1  5  1  0
  1 17  1  0
  2  3  1  0
  2 14  1  0
  3  4  2  0
  3 15  1  0
  4 16  1  0
  5 13  1  0
  5 16  2  0
  6  7  1  0
  6 14  1  0
  7  8  1  0
  7 10  2  0
  8  9  1  0
  8 12  2  0
 10 11  1  0
 11 12  1  0
 15 21  1  0
 22 18  1  1
 19 22  1  0
 20 22  2  0
 21 22  1  0
  4 23  1  0
  6 24  1  0
  6 25  1  0
  9 26  1  0
 10 27  1  0
 13 28  1  0
 13 29  1  0
 13 30  1  0
 14 31  1  0
 14 32  1  0
 15 33  1  0
 15 34  1  0
 17 35  1  0
M  CHG  3   6   1  18  -1  19  -1
M  END
>  <filename_input>  (2) 
8B8H_OJQ_docked.sdf

>  <pdb_id>  (2) 
8B8H_OJQ

>  <pose_rank>  (2) 
1

>  <num_atoms_heavy>  (2) 
22

>  <num_torsions>  (2) 
6

>  <pose>  (2) 
[27.25963612740066, -5.943744519683704, 2.000602572384758, 2.401140906211545, 1.6565695711169688, -5.76758101835883, 0.28736523961901783, 0.1324518008007602, 2.183531578199269, 6.1448028415066585, -0.7080014579457491, -3.1483368217491807]

>  <energy>  (2) 
-870.5222668434301

>  <inter_energy>  (2) 
-897.8192172309518

>  <intra_energy>  (2) 
24.87325065910321

>  <rmsd>  (2) 
1.33249

>  <sdf_rank>  (2) 
0

$$$$

     RDKit          3D

 35 36  0  0  0  0  0  0  0  0999 V2000
   29.2060   -2.4435    1.4902 C   0  0  0  0  0  0  0  0  0  0  0  0
   28.1311   -2.9188    2.2204 C   0  0  0  0  0  0  0  0  0  0  0  0
   27.0667   -2.0625    2.4744 C   0  0  0  0  0  0  0  0  0  0  0  0
   27.1150   -0.7585    1.9965 C   0  0  0  0  0  0  0  0  0  0  0  0
   29.2097   -1.1387    1.0343 C   0  0  0  0  0  0  0  0  0  0  0  0
   26.8913   -5.1122    1.9785 N   0  0  0  0  0  0  0  0  0  0  0  0
   27.1892   -6.4836    1.6844 C   0  0  0  0  0  0  0  0  0  0  0  0
   28.1817   -6.9913    0.6629 C   0  0  0  0  0  0  0  0  0  0  0  0
   29.1030   -6.1041   -0.0943 O   0  0  0  0  0  0  0  0  0  0  0  0
   26.5823   -7.6518    2.0725 C   0  0  0  0  0  0  0  0  0  0  0  0
   27.2165   -8.6982    1.4336 O   0  0  0  0  0  0  0  0  0  0  0  0
   28.1783   -8.3340    0.5835 N   0  0  0  0  0  0  0  0  0  0  0  0
   30.3802   -0.6174    0.2427 C   0  0  0  0  0  0  0  0  0  0  0  0
   28.1555   -4.3516    2.7039 C   0  0  0  0  0  0  0  0  0  0  0  0
   25.8518   -2.4966    3.2662 C   0  0  0  0  0  0  0  0  0  0  0  0
   28.1685   -0.3234    1.2957 N   0  0  0  0  0  0  0  0  0  0  0  0
   30.2383   -3.2408    1.2304 O   0  0  0  0  0  0  0  0  0  0  0  0
   24.0609   -0.3361    3.9709 O   0  0  0  0  0  0  0  0  0  0  0  0
   22.7322   -0.7646    1.9268 O   0  0  0  0  0  0  0  0  0  0  0  0
   22.5449   -2.2864    3.8755 O   0  0  0  0  0  0  0  0  0  0  0  0
   24.6685   -2.3091    2.4937 O   0  0  0  0  0  0  0  0  0  0  0  0
   23.4696   -1.4003    3.0787 P   0  0  2  0  0  0  0  0  0  0  0  0
   26.2765   -0.0753    2.1969 H   0  0  0  0  0  0  0  0  0  0  0  0
   26.6691   -4.6238    1.0993 H   0  0  0  0  0  0  0  0  0  0  0  0
   26.0917   -5.0915    2.6274 H   0  0  0  0  0  0  0  0  0  0  0  0
   29.7334   -6.4910   -0.7522 H   0  0  0  0  0  0  0  0  0  0  0  0
   25.7372   -7.7390    2.7712 H   0  0  0  0  0  0  0  0  0  0  0  0
   31.1630   -0.2686    0.9322 H   0  0  0  0  0  0  0  0  0  0  0  0
   30.7816   -1.4218   -0.3912 H   0  0  0  0  0  0  0  0  0  0  0  0
   30.0507    0.2191   -0.3912 H   0  0  0  0  0  0  0  0  0  0  0  0
   29.1026   -4.8326    2.4184 H   0  0  0  0  0  0  0  0  0  0  0  0
   28.0739   -4.4025    3.7996 H   0  0  0  0  0  0  0  0  0  0  0  0
   25.9499   -3.5604    3.5283 H   0  0  0  0  0  0  0  0  0  0  0  0
   25.7835   -1.8895    4.1809 H   0  0  0  0  0  0  0  0  0  0  0  0
   31.0073   -2.9005    0.7079 H   0  0  0  0  0  0  0  0  0  0  0  0
  1  2  2  0
  1  5  1  0
  1 17  1  0
  2  3  1  0
  2 14  1  0
  3  4  2  0
  3 15  1  0
  4 16  1  0
  5 13  1  0
  5 16  2  0
  6  7  1  0
  6 14  1  0
  7  8  1  0
  7 10  2  0
  8  9  1  0
  8 12  2  0
 10 11  1  0
 11 12  1  0
 15 21  1  0
 22 18  1  1
 19 22  1  0
 20 22  2  0
 21 22  1  0
  4 23  1  0
  6 24  1  0
  6 25  1  0
  9 26  1  0
 10 27  1  0
 13 28  1  0
 13 29  1  0
 13 30  1  0
 14 31  1  0
 14 32  1  0
 15 33  1  0
 15 34  1  0
 17 35  1  0
M  CHG  3   6   1  18  -1  19  -1
M  END
>  <filename_input>  (3) 
8B8H_OJQ_docked.sdf

>  <pdb_id>  (3) 
8B8H_OJQ

>  <pose_rank>  (3) 
2

>  <num_atoms_heavy>  (3) 
22

>  <num_torsions>  (3) 
6

>  <pose>  (3) 
[29.205993249455403, -2.4434668123314403, 1.4901977604840517, -3.200642715078254, 1.1019513084635437, 1.5074917651774191, -3.3300703934491636, 5.61590739131711, -2.643285641143727, 3.099436920374732, 1.0868762010499096, 1.4256969616740298]

>  <energy>  (3) 
-719.027821411479

>  <inter_energy>  (3) 
-727.6276388037634

>  <intra_energy>  (3) 
12.47909536296936

>  <rmsd>  (3) 
4.95854

>  <sdf_rank>  (3) 
0

$$$$

     RDKit          3D

 35 36  0  0  0  0  0  0  0  0999 V2000
   28.4739   -1.0175    2.1785 C   0  0  0  0  0  0  0  0  0  0  0  0
   27.3378   -1.7908    2.3391 C   0  0  0  0  0  0  0  0  0  0  0  0
   26.2772   -1.6081    1.4603 C   0  0  0  0  0  0  0  0  0  0  0  0
   26.3844   -0.6546    0.4552 C   0  0  0  0  0  0  0  0  0  0  0  0
   28.5358   -0.0817    1.1633 C   0  0  0  0  0  0  0  0  0  0  0  0
   28.4418   -3.9368    3.1024 N   0  0  0  0  0  0  0  0  0  0  0  0
   27.8783   -5.0766    2.4395 C   0  0  0  0  0  0  0  0  0  0  0  0
   26.5969   -5.7903    2.8064 C   0  0  0  0  0  0  0  0  0  0  0  0
   25.6581   -5.3019    3.8501 O   0  0  0  0  0  0  0  0  0  0  0  0
   28.3818   -5.9096    1.4719 C   0  0  0  0  0  0  0  0  0  0  0  0
   27.4587   -6.9100    1.2435 O   0  0  0  0  0  0  0  0  0  0  0  0
   26.3797   -6.8650    2.0272 N   0  0  0  0  0  0  0  0  0  0  0  0
   29.7696    0.7643    0.9886 C   0  0  0  0  0  0  0  0  0  0  0  0
   27.3010   -2.8077    3.4580 C   0  0  0  0  0  0  0  0  0  0  0  0
   24.9960   -2.4078    1.5630 C   0  0  0  0  0  0  0  0  0  0  0  0
   27.4935    0.0824    0.3243 N   0  0  0  0  0  0  0  0  0  0  0  0
   29.5054   -1.1715    3.0037 O   0  0  0  0  0  0  0  0  0  0  0  0
   23.1076   -2.4547    3.9203 O   0  0  0  0  0  0  0  0  0  0  0  0
   24.2916   -0.2817    3.8575 O   0  0  0  0  0  0  0  0  0  0  0  0
   21.9795   -0.4659    2.9805 O   0  0  0  0  0  0  0  0  0  0  0  0
   23.8779   -1.5319    1.6844 O   0  0  0  0  0  0  0  0  0  0  0  0
   23.3018   -1.1720    3.1487 P   0  0  2  0  0  0  0  0  0  0  0  0
   25.5469   -0.5036   -0.2418 H   0  0  0  0  0  0  0  0  0  0  0  0
   28.8871   -4.2472    3.9777 H   0  0  0  0  0  0  0  0  0  0  0  0
   29.1296   -3.5064    2.4678 H   0  0  0  0  0  0  0  0  0  0  0  0
   24.8322   -5.8098    4.0499 H   0  0  0  0  0  0  0  0  0  0  0  0
   29.3524   -5.7991    0.9662 H   0  0  0  0  0  0  0  0  0  0  0  0
   30.1692    1.0383    1.9761 H   0  0  0  0  0  0  0  0  0  0  0  0
   30.5282    0.1955    0.4310 H   0  0  0  0  0  0  0  0  0  0  0  0
   29.5124    1.6770    0.4310 H   0  0  0  0  0  0  0  0  0  0  0  0
   27.5319   -2.3239    4.4185 H   0  0  0  0  0  0  0  0  0  0  0  0
   26.3042   -3.2644    3.5471 H   0  0  0  0  0  0  0  0  0  0  0  0
   24.8786   -3.0238    0.6593 H   0  0  0  0  0  0  0  0  0  0  0  0
   25.0454   -3.0525    2.4529 H   0  0  0  0  0  0  0  0  0  0  0  0
   30.3182   -0.6181    2.8887 H   0  0  0  0  0  0  0  0  0  0  0  0
  1  2  2  0
  1  5  1  0
  1 17  1  0
  2  3  1  0
  2 14  1  0
  3  4  2  0
  3 15  1  0
  4 16  1  0
  5 13  1  0
  5 16  2  0
  6  7  1  0
  6 14  1  0
  7  8  1  0
  7 10  2  0
  8  9  1  0
  8 12  2  0
 10 11  1  0
 11 12  1  0
 15 21  1  0
 22 18  1  1
 19 22  1  0
 20 22  2  0
 21 22  1  0
  4 23  1  0
  6 24  1  0
  6 25  1  0
  9 26  1  0
 10 27  1  0
 13 28  1  0
 13 29  1  0
 13 30  1  0
 14 31  1  0
 14 32  1  0
 15 33  1  0
 15 34  1  0
 17 35  1  0
M  CHG  3   6   1  18  -1  19  -1
M  END
>  <filename_input>  (4) 
8B8H_OJQ_docked.sdf

>  <pdb_id>  (4) 
8B8H_OJQ

>  <pose_rank>  (4) 
3

>  <num_atoms_heavy>  (4) 
22

>  <num_torsions>  (4) 
6

>  <pose>  (4) 
[28.47389542966386, -1.0175412025338006, 2.178498788323068, -3.811980450228495, 1.1676614897812843, -0.3369470908974644, -2.424919630346287, -4.894685385615905, -2.210900160727877, 1.1257030291324484, 1.583966798408358, 0.03457797542919048]

>  <energy>  (4) 
-656.5184755251652

>  <inter_energy>  (4) 
-657.3654691917397

>  <intra_energy>  (4) 
20.37225669090791

>  <rmsd>  (4) 
5.06284

>  <sdf_rank>  (4) 
0

$$$$

     RDKit          3D

 35 36  0  0  0  0  0  0  0  0999 V2000
   27.0404   -4.6417    2.3054 C   0  0  0  0  0  0  0  0  0  0  0  0
   25.9997   -3.7800    2.6037 C   0  0  0  0  0  0  0  0  0  0  0  0
   24.7809   -4.3180    2.9983 C   0  0  0  0  0  0  0  0  0  0  0  0
   24.6407   -5.6984    3.0749 C   0  0  0  0  0  0  0  0  0  0  0  0
   26.8548   -6.0082    2.3967 C   0  0  0  0  0  0  0  0  0  0  0  0
   27.0642   -2.0460    1.0982 N   0  0  0  0  0  0  0  0  0  0  0  0
   26.3281   -1.2340    0.1734 C   0  0  0  0  0  0  0  0  0  0  0  0
   26.4585    0.2604   -0.0156 C   0  0  0  0  0  0  0  0  0  0  0  0
   27.4965    1.0831    0.6589 O   0  0  0  0  0  0  0  0  0  0  0  0
   25.2430   -1.5112   -0.6198 C   0  0  0  0  0  0  0  0  0  0  0  0
   24.8689   -0.3461   -1.2584 O   0  0  0  0  0  0  0  0  0  0  0  0
   25.5782    0.7314   -0.9170 N   0  0  0  0  0  0  0  0  0  0  0  0
   27.9846   -6.9487    2.0688 C   0  0  0  0  0  0  0  0  0  0  0  0
   26.2343   -2.2898    2.4962 C   0  0  0  0  0  0  0  0  0  0  0  0
   23.5883   -3.4511    3.3411 C   0  0  0  0  0  0  0  0  0  0  0  0
   25.6627   -6.5093    2.7775 N   0  0  0  0  0  0  0  0  0  0  0  0
   28.2188   -4.1553    1.9265 O   0  0  0  0  0  0  0  0  0  0  0  0
   24.1635   -0.8878    1.8130 O   0  0  0  0  0  0  0  0  0  0  0  0
   22.2128   -0.5783    3.3052 O   0  0  0  0  0  0  0  0  0  0  0  0
   24.4461    0.2574    3.9855 O   0  0  0  0  0  0  0  0  0  0  0  0
   24.0210   -2.2403    3.9566 O   0  0  0  0  0  0  0  0  0  0  0  0
   23.6994   -0.8261    3.2480 P   0  0  2  0  0  0  0  0  0  0  0  0
   23.6773   -6.1300    3.3841 H   0  0  0  0  0  0  0  0  0  0  0  0
   27.2551   -2.9589    0.6609 H   0  0  0  0  0  0  0  0  0  0  0  0
   27.9393   -1.5540    1.3283 H   0  0  0  0  0  0  0  0  0  0  0  0
   27.5359    2.0592    0.4985 H   0  0  0  0  0  0  0  0  0  0  0  0
   24.7559   -2.4916   -0.7279 H   0  0  0  0  0  0  0  0  0  0  0  0
   28.4332   -7.3221    3.0011 H   0  0  0  0  0  0  0  0  0  0  0  0
   27.5982   -7.7957    1.4828 H   0  0  0  0  0  0  0  0  0  0  0  0
   28.7474   -6.4151    1.4828 H   0  0  0  0  0  0  0  0  0  0  0  0
   25.2734   -1.7553    2.4656 H   0  0  0  0  0  0  0  0  0  0  0  0
   26.7969   -1.9128    3.3630 H   0  0  0  0  0  0  0  0  0  0  0  0
   23.0351   -3.2133    2.4205 H   0  0  0  0  0  0  0  0  0  0  0  0
   22.9370   -3.9964    4.0400 H   0  0  0  0  0  0  0  0  0  0  0  0
   28.9633   -4.7720    1.7131 H   0  0  0  0  0  0  0  0  0  0  0  0
  1  2  2  0
  1  5  1  0
  1 17  1  0
  2  3  1  0
  2 14  1  0
  3  4  2  0
  3 15  1  0
  4 16  1  0
  5 13  1  0
  5 16  2  0
  6  7  1  0
  6 14  1  0
  7  8  1  0
  7 10  2  0
  8  9  1  0
  8 12  2  0
 10 11  1  0
 11 12  1  0
 15 21  1  0
 22 18  1  6
 19 22  1  0
 20 22  2  0
 21 22  1  0
  4 23  1  0
  6 24  1  0
  6 25  1  0
  9 26  1  0
 10 27  1  0
 13 28  1  0
 13 29  1  0
 13 30  1  0
 14 31  1  0
 14 32  1  0
 15 33  1  0
 15 34  1  0
 17 35  1  0
M  CHG  3   6   1  18  -1  19  -1
M  END
>  <filename_input>  (5) 
8B8H_OJQ_docked.sdf

>  <pdb_id>  (5) 
8B8H_OJQ

>  <pose_rank>  (5) 
4

>  <num_atoms_heavy>  (5) 
22

>  <num_torsions>  (5) 
6

>  <pose>  (5) 
[27.04042350857922, -4.641660325573357, 2.305424898746032, 2.268486639666032, 1.907820866372017, -5.037773518782559, -6.802839617561213, -1.1562152801877883, -6.061828816835214, 4.65181929269231, 5.314732475123449, -0.006076980100382313]

>  <energy>  (5) 
-569.5979855789382

>  <inter_energy>  (5) 
-739.2441418955084

>  <intra_energy>  (5) 
170.4059020103614

>  <rmsd>  (5) 
2.39076

>  <sdf_rank>  (5) 
0

$$$$

     RDKit          3D

 35 36  0  0  0  0  0  0  0  0999 V2000
   29.2772   -1.9983    1.3883 C   0  0  0  0  0  0  0  0  0  0  0  0
   28.2894   -2.6855    2.0712 C   0  0  0  0  0  0  0  0  0  0  0  0
   27.0373   -2.0976    2.2025 C   0  0  0  0  0  0  0  0  0  0  0  0
   26.8162   -0.8404    1.6534 C   0  0  0  0  0  0  0  0  0  0  0  0
   29.0110   -0.7500    0.8579 C   0  0  0  0  0  0  0  0  0  0  0  0
   27.9230   -5.1506    1.6289 N   0  0  0  0  0  0  0  0  0  0  0  0
   28.9022   -5.8325    0.8336 C   0  0  0  0  0  0  0  0  0  0  0  0
   28.8851   -7.2920    0.4392 C   0  0  0  0  0  0  0  0  0  0  0  0
   27.7444   -8.2025    0.7205 O   0  0  0  0  0  0  0  0  0  0  0  0
   30.1408   -5.4477    0.3850 C   0  0  0  0  0  0  0  0  0  0  0  0
   30.7119   -6.5193   -0.2714 O   0  0  0  0  0  0  0  0  0  0  0  0
   29.9837   -7.6374   -0.2557 N   0  0  0  0  0  0  0  0  0  0  0  0
   30.0855    0.0021    0.1175 C   0  0  0  0  0  0  0  0  0  0  0  0
   28.6107   -4.0502    2.6384 C   0  0  0  0  0  0  0  0  0  0  0  0
   25.8993   -2.7758    2.9350 C   0  0  0  0  0  0  0  0  0  0  0  0
   27.7904   -0.1960    1.0006 N   0  0  0  0  0  0  0  0  0  0  0  0
   30.4849   -2.5367    1.2455 O   0  0  0  0  0  0  0  0  0  0  0  0
   23.0248   -0.3124    3.6775 O   0  0  0  0  0  0  0  0  0  0  0  0
   23.5446   -1.5033    1.5706 O   0  0  0  0  0  0  0  0  0  0  0  0
   22.7329   -2.7636    3.5458 O   0  0  0  0  0  0  0  0  0  0  0  0
   25.0772   -1.8028    3.5750 O   0  0  0  0  0  0  0  0  0  0  0  0
   23.5568   -1.5906    3.0763 P   0  0  2  0  0  0  0  0  0  0  0  0
   25.8277   -0.3690    1.7566 H   0  0  0  0  0  0  0  0  0  0  0  0
   27.2664   -4.6631    1.0028 H   0  0  0  0  0  0  0  0  0  0  0  0
   27.4359   -5.8515    2.2054 H   0  0  0  0  0  0  0  0  0  0  0  0
   27.7869   -9.1507    0.4392 H   0  0  0  0  0  0  0  0  0  0  0  0
   30.5989   -4.4574    0.5243 H   0  0  0  0  0  0  0  0  0  0  0  0
   30.7647    0.4776    0.8404 H   0  0  0  0  0  0  0  0  0  0  0  0
   30.6533   -0.6967   -0.5143 H   0  0  0  0  0  0  0  0  0  0  0  0
   29.6231    0.7748   -0.5143 H   0  0  0  0  0  0  0  0  0  0  0  0
   29.7000   -4.1986    2.6767 H   0  0  0  0  0  0  0  0  0  0  0  0
   28.2247   -4.1554    3.6630 H   0  0  0  0  0  0  0  0  0  0  0  0
   25.2936   -3.3471    2.2162 H   0  0  0  0  0  0  0  0  0  0  0  0
   26.3147   -3.4519    3.6967 H   0  0  0  0  0  0  0  0  0  0  0  0
   31.1915   -2.0449    0.7568 H   0  0  0  0  0  0  0  0  0  0  0  0
  1  2  2  0
  1  5  1  0
  1 17  1  0
  2  3  1  0
  2 14  1  0
  3  4  2  0
  3 15  1  0
  4 16  1  0
  5 13  1  0
  5 16  2  0
  6  7  1  0
  6 14  1  0
  7  8  1  0
  7 10  2  0
  8  9  1  0
  8 12  2  0
 10 11  1  0
 11 12  1  0
 15 21  1  0
 22 18  1  1
 19 22  1  0
 20 22  2  0
 21 22  1  0
  4 23  1  0
  6 24  1  0
  6 25  1  0
  9 26  1  0
 10 27  1  0
 13 28  1  0
 13 29  1  0
 13 30  1  0
 14 31  1  0
 14 32  1  0
 15 33  1  0
 15 34  1  0
 17 35  1  0
M  CHG  3   6   1  18  -1  19  -1
M  END
>  <filename_input>  (6) 
8B8H_OJQ_docked.sdf

>  <pdb_id>  (6) 
8B8H_OJQ

>  <pose_rank>  (6) 
5

>  <num_atoms_heavy>  (6) 
22

>  <num_torsions>  (6) 
6

>  <pose>  (6) 
[29.277222680766553, -1.9982573250173272, 1.3882561009387133, 2.2575618966514335, -0.5343053550038315, -0.8271177402673018, -3.081455770530209, -1.348769266035059, -5.250330241711325, -4.750002408187405, -1.0497800847506424, -2.0145691510112544]

>  <energy>  (6) 
-634.7816808340713

>  <inter_energy>  (6) 
-650.9367187901528

>  <intra_energy>  (6) 
18.467619571496733

>  <rmsd>  (6) 
4.81871

>  <sdf_rank>  (6) 
0

$$$$

     RDKit          3D

 35 36  0  0  0  0  0  0  0  0999 V2000
   25.7663   -4.6552    3.0258 C   0  0  0  0  0  0  0  0  0  0  0  0
   26.7831   -3.9334    2.4259 C   0  0  0  0  0  0  0  0  0  0  0  0
   27.7901   -4.6244    1.7633 C   0  0  0  0  0  0  0  0  0  0  0  0
   27.7512   -6.0131    1.7281 C   0  0  0  0  0  0  0  0  0  0  0  0
   25.7688   -6.0359    2.9640 C   0  0  0  0  0  0  0  0  0  0  0  0
   28.3174   -1.9236    2.5398 N   0  0  0  0  0  0  0  0  0  0  0  0
   28.5354   -0.7942    1.6835 C   0  0  0  0  0  0  0  0  0  0  0  0
   29.8379   -0.4018    1.0236 C   0  0  0  0  0  0  0  0  0  0  0  0
   31.0643   -1.2403    1.0705 O   0  0  0  0  0  0  0  0  0  0  0  0
   27.7447    0.2856    1.3797 C   0  0  0  0  0  0  0  0  0  0  0  0
   28.4690    1.1330    0.5658 O   0  0  0  0  0  0  0  0  0  0  0  0
   29.7256    0.7481    0.3349 N   0  0  0  0  0  0  0  0  0  0  0  0
   24.6656   -6.8244    3.6195 C   0  0  0  0  0  0  0  0  0  0  0  0
   26.7516   -2.4237    2.5091 C   0  0  0  0  0  0  0  0  0  0  0  0
   28.9416   -3.9169    1.0815 C   0  0  0  0  0  0  0  0  0  0  0  0
   26.7579   -6.6867    2.3196 N   0  0  0  0  0  0  0  0  0  0  0  0
   24.7883   -4.0207    3.6658 O   0  0  0  0  0  0  0  0  0  0  0  0
   31.9309   -4.2190   -0.7171 O   0  0  0  0  0  0  0  0  0  0  0  0
   31.6798   -4.2659    1.7450 O   0  0  0  0  0  0  0  0  0  0  0  0
   31.6828   -6.3824    0.4530 O   0  0  0  0  0  0  0  0  0  0  0  0
   29.6814   -4.8377    0.2835 O   0  0  0  0  0  0  0  0  0  0  0  0
   31.2846   -4.9275    0.4485 P   0  0  2  0  0  0  0  0  0  0  0  0
   28.5472   -6.5655    1.2073 H   0  0  0  0  0  0  0  0  0  0  0  0
   28.9205   -2.6985    2.2288 H   0  0  0  0  0  0  0  0  0  0  0  0
   28.5431   -1.6410    3.5042 H   0  0  0  0  0  0  0  0  0  0  0  0
   31.8909   -0.9339    0.6200 H   0  0  0  0  0  0  0  0  0  0  0  0
   26.7128    0.4475    1.7248 H   0  0  0  0  0  0  0  0  0  0  0  0
   24.7642   -6.7540    4.7128 H   0  0  0  0  0  0  0  0  0  0  0  0
   23.6912   -6.4169    3.3122 H   0  0  0  0  0  0  0  0  0  0  0  0
   24.7356   -7.8783    3.3122 H   0  0  0  0  0  0  0  0  0  0  0  0
   26.2365   -2.0057    1.6316 H   0  0  0  0  0  0  0  0  0  0  0  0
   26.2092   -2.0864    3.4047 H   0  0  0  0  0  0  0  0  0  0  0  0
   28.5469   -3.1153    0.4398 H   0  0  0  0  0  0  0  0  0  0  0  0
   29.6060   -3.4913    1.8479 H   0  0  0  0  0  0  0  0  0  0  0  0
   24.0609   -4.5373    4.0949 H   0  0  0  0  0  0  0  0  0  0  0  0
  1  2  2  0
  1  5  1  0
  1 17  1  0
  2  3  1  0
  2 14  1  0
  3  4  2  0
  3 15  1  0
  4 16  1  0
  5 13  1  0
  5 16  2  0
  6  7  1  0
  6 14  1  0
  7  8  1  0
  7 10  2  0
  8  9  1  0
  8 12  2  0
 10 11  1  0
 11 12  1  0
 15 21  1  0
 22 18  1  6
 19 22  1  0
 20 22  2  0
 21 22  1  0
  4 23  1  0
  6 24  1  0
  6 25  1  0
  9 26  1  0
 10 27  1  0
 13 28  1  0
 13 29  1  0
 13 30  1  0
 14 31  1  0
 14 32  1  0
 15 33  1  0
 15 34  1  0
 17 35  1  0
M  CHG  3   6   1  18  -1  19  -1
M  END
>  <filename_input>  (7) 
8B8H_OJQ_docked.sdf

>  <pdb_id>  (7) 
8B8H_OJQ

>  <pose_rank>  (7) 
6

>  <num_atoms_heavy>  (7) 
22

>  <num_torsions>  (7) 
6

>  <pose>  (7) 
[25.76634565798999, -4.655208571196962, 3.0257620812623203, -0.7690962567522952, -2.9446854829453684, -0.10933087654711034, -11.262923660860263, -0.8356392996659658, -10.417739840251143, 8.574828088029038, 19.84614760110822, -0.9106305981563242]

>  <energy>  (7) 
-498.1632271480395

>  <inter_energy>  (7) 
-550.3991583532925

>  <intra_energy>  (7) 
54.37676297173519

>  <rmsd>  (7) 
4.77936

>  <sdf_rank>  (7) 
0

$$$$

     RDKit          3D

 35 36  0  0  0  0  0  0  0  0999 V2000
   30.0621   -2.4291    0.9858 C   0  0  0  0  0  0  0  0  0  0  0  0
   28.8558   -2.3790    1.6618 C   0  0  0  0  0  0  0  0  0  0  0  0
   28.3396   -3.5547    2.1926 C   0  0  0  0  0  0  0  0  0  0  0  0
   29.0422   -4.7418    2.0243 C   0  0  0  0  0  0  0  0  0  0  0  0
   30.7260   -3.6330    0.8440 C   0  0  0  0  0  0  0  0  0  0  0  0
   26.8469   -1.3047    2.7648 N   0  0  0  0  0  0  0  0  0  0  0  0
   25.6173   -1.2182    2.0322 C   0  0  0  0  0  0  0  0  0  0  0  0
   25.4536   -0.7777    0.5951 C   0  0  0  0  0  0  0  0  0  0  0  0
   26.5984   -0.4999   -0.3112 O   0  0  0  0  0  0  0  0  0  0  0  0
   24.3085   -1.3194    2.4327 C   0  0  0  0  0  0  0  0  0  0  0  0
   23.5042   -1.0708    1.3388 O   0  0  0  0  0  0  0  0  0  0  0  0
   24.1611   -0.7438    0.2243 N   0  0  0  0  0  0  0  0  0  0  0  0
   32.0372   -3.6913    0.1051 C   0  0  0  0  0  0  0  0  0  0  0  0
   28.1543   -1.0465    1.8021 C   0  0  0  0  0  0  0  0  0  0  0  0
   27.0264   -3.5934    2.9446 C   0  0  0  0  0  0  0  0  0  0  0  0
   30.2052   -4.7628    1.3631 N   0  0  0  0  0  0  0  0  0  0  0  0
   30.5812   -1.3194    0.4683 O   0  0  0  0  0  0  0  0  0  0  0  0
   26.0986   -6.7733    2.1999 O   0  0  0  0  0  0  0  0  0  0  0  0
   25.2615   -6.5705    4.5206 O   0  0  0  0  0  0  0  0  0  0  0  0
   24.5086   -4.9719    2.7810 O   0  0  0  0  0  0  0  0  0  0  0  0
   26.8906   -4.8339    3.6336 O   0  0  0  0  0  0  0  0  0  0  0  0
   25.6577   -5.8132    3.2779 P   0  0  2  0  0  0  0  0  0  0  0  0
   28.6370   -5.6762    2.4400 H   0  0  0  0  0  0  0  0  0  0  0  0
   26.8393   -0.5966    3.5128 H   0  0  0  0  0  0  0  0  0  0  0  0
   26.9202   -2.2555    3.1540 H   0  0  0  0  0  0  0  0  0  0  0  0
   26.4328   -0.2139   -1.2444 H   0  0  0  0  0  0  0  0  0  0  0  0
   23.9609   -1.5573    3.4488 H   0  0  0  0  0  0  0  0  0  0  0  0
   32.8646   -3.7281    0.8290 H   0  0  0  0  0  0  0  0  0  0  0  0
   32.0623   -4.5915   -0.5266 H   0  0  0  0  0  0  0  0  0  0  0  0
   32.1422   -2.7969   -0.5266 H   0  0  0  0  0  0  0  0  0  0  0  0
   28.8274   -0.3099    2.2651 H   0  0  0  0  0  0  0  0  0  0  0  0
   27.8532   -0.6509    0.8209 H   0  0  0  0  0  0  0  0  0  0  0  0
   26.9997   -2.7687    3.6720 H   0  0  0  0  0  0  0  0  0  0  0  0
   26.1988   -3.4883    2.2276 H   0  0  0  0  0  0  0  0  0  0  0  0
   31.4443   -1.3554   -0.0153 H   0  0  0  0  0  0  0  0  0  0  0  0
  1  2  2  0
  1  5  1  0
  1 17  1  0
  2  3  1  0
  2 14  1  0
  3  4  2  0
  3 15  1  0
  4 16  1  0
  5 13  1  0
  5 16  2  0
  6  7  1  0
  6 14  1  0
  7  8  1  0
  7 10  2  0
  8  9  1  0
  8 12  2  0
 10 11  1  0
 11 12  1  0
 15 21  1  0
 22 18  1  6
 19 22  1  0
 20 22  2  0
 21 22  1  0
  4 23  1  0
  6 24  1  0
  6 25  1  0
  9 26  1  0
 10 27  1  0
 13 28  1  0
 13 29  1  0
 13 30  1  0
 14 31  1  0
 14 32  1  0
 15 33  1  0
 15 34  1  0
 17 35  1  0
M  CHG  3   6   1  18  -1  19  -1
M  END
>  <filename_input>  (8) 
8B8H_OJQ_docked.sdf

>  <pdb_id>  (8) 
8B8H_OJQ

>  <pose_rank>  (8) 
7

>  <num_atoms_heavy>  (8) 
22

>  <num_torsions>  (8) 
6

>  <pose>  (8) 
[30.062081774779667, -2.429095573473311, 0.9857824993263458, -0.28893978637512385, -0.2778256836172769, -5.2449099552228065, -4.3308254345663935, 1.155578407658189, -1.5781384653589752, 2.3397636131635715, 1.166811433273767, 2.4945109558478697]

>  <energy>  (8) 
-402.5468447038531

>  <inter_energy>  (8) 
-498.3205782484015

>  <intra_energy>  (8) 
112.30458576854444

>  <rmsd>  (8) 
4.66097

>  <sdf_rank>  (8) 
0

$$$$

     RDKit          3D

 35 36  0  0  0  0  0  0  0  0999 V2000
   28.9198   -1.7053    1.9141 C   0  0  0  0  0  0  0  0  0  0  0  0
   29.3381   -3.0202    2.0166 C   0  0  0  0  0  0  0  0  0  0  0  0
   30.3763   -3.4551    1.2019 C   0  0  0  0  0  0  0  0  0  0  0  0
   30.9568   -2.5639    0.3075 C   0  0  0  0  0  0  0  0  0  0  0  0
   29.5279   -0.8545    1.0104 C   0  0  0  0  0  0  0  0  0  0  0  0
   27.1685   -4.2660    2.4003 N   0  0  0  0  0  0  0  0  0  0  0  0
   27.0215   -5.6592    2.0946 C   0  0  0  0  0  0  0  0  0  0  0  0
   26.0207   -6.6148    2.7038 C   0  0  0  0  0  0  0  0  0  0  0  0
   24.9372   -6.1865    3.6268 O   0  0  0  0  0  0  0  0  0  0  0  0
   27.7993   -6.5181    1.3591 C   0  0  0  0  0  0  0  0  0  0  0  0
   27.2511   -7.7814    1.4531 O   0  0  0  0  0  0  0  0  0  0  0  0
   26.1854   -7.8707    2.2511 N   0  0  0  0  0  0  0  0  0  0  0  0
   29.0720    0.5763    0.8937 C   0  0  0  0  0  0  0  0  0  0  0  0
   28.6544   -3.9262    3.0161 C   0  0  0  0  0  0  0  0  0  0  0  0
   30.8962   -4.8761    1.2451 C   0  0  0  0  0  0  0  0  0  0  0  0
   30.5306   -1.2981    0.2263 N   0  0  0  0  0  0  0  0  0  0  0  0
   27.9294   -1.2605    2.6822 O   0  0  0  0  0  0  0  0  0  0  0  0
   30.2529   -7.3082   -0.0443 O   0  0  0  0  0  0  0  0  0  0  0  0
   30.4985   -5.9409   -2.0931 O   0  0  0  0  0  0  0  0  0  0  0  0
   32.4327   -7.2142   -1.2064 O   0  0  0  0  0  0  0  0  0  0  0  0
   31.6200   -5.1714    0.0531 O   0  0  0  0  0  0  0  0  0  0  0  0
   31.1892   -6.4392   -0.8483 P   0  0  2  0  0  0  0  0  0  0  0  0
   31.7772   -2.9034   -0.3419 H   0  0  0  0  0  0  0  0  0  0  0  0
   27.0328   -3.7198    1.5376 H   0  0  0  0  0  0  0  0  0  0  0  0
   26.4647   -4.0193    3.1108 H   0  0  0  0  0  0  0  0  0  0  0  0
   24.3087   -6.8560    3.9969 H   0  0  0  0  0  0  0  0  0  0  0  0
   28.7025   -6.2468    0.7929 H   0  0  0  0  0  0  0  0  0  0  0  0
   28.9366    1.0011    1.8993 H   0  0  0  0  0  0  0  0  0  0  0  0
   29.8289    1.1590    0.3484 H   0  0  0  0  0  0  0  0  0  0  0  0
   28.1174    0.6136    0.3484 H   0  0  0  0  0  0  0  0  0  0  0  0
   29.2326   -4.8529    3.1462 H   0  0  0  0  0  0  0  0  0  0  0  0
   28.5752   -3.4429    4.0010 H   0  0  0  0  0  0  0  0  0  0  0  0
   31.5618   -4.9933    2.1130 H   0  0  0  0  0  0  0  0  0  0  0  0
   30.0449   -5.5676    1.3290 H   0  0  0  0  0  0  0  0  0  0  0  0
   27.6302   -0.3197    2.6087 H   0  0  0  0  0  0  0  0  0  0  0  0
  1  2  2  0
  1  5  1  0
  1 17  1  0
  2  3  1  0
  2 14  1  0
  3  4  2  0
  3 15  1  0
  4 16  1  0
  5 13  1  0
  5 16  2  0
  6  7  1  0
  6 14  1  0
  7  8  1  0
  7 10  2  0
  8  9  1  0
  8 12  2  0
 10 11  1  0
 11 12  1  0
 15 21  1  0
 22 18  1  1
 19 22  1  0
 20 22  2  0
 21 22  1  0
  4 23  1  0
  6 24  1  0
  6 25  1  0
  9 26  1  0
 10 27  1  0
 13 28  1  0
 13 29  1  0
 13 30  1  0
 14 31  1  0
 14 32  1  0
 15 33  1  0
 15 34  1  0
 17 35  1  0
M  CHG  3   6   1  18  -1  19  -1
M  END
>  <filename_input>  (9) 
8B8H_OJQ_docked.sdf

>  <pdb_id>  (9) 
8B8H_OJQ

>  <pose_rank>  (9) 
8

>  <num_atoms_heavy>  (9) 
22

>  <num_torsions>  (9) 
6

>  <pose>  (9) 
[28.91981850659659, -1.70526900996988, 1.91407594428429, 1.3693235995472157, 0.10377243048268077, 2.360703205980918, -6.28583800259078, -1.2023418514117088, -5.663692856171963, 8.057916224111233, 1.0788480482085179, 0.6538792009611712]

>  <energy>  (9) 
-571.2194494548495

>  <inter_energy>  (9) 
-583.9967342547087

>  <intra_energy>  (9) 
20.337153431356768

>  <rmsd>  (9) 
7.37881

>  <sdf_rank>  (9) 
0

$$$$

     RDKit          3D

 35 36  0  0  0  0  0  0  0  0999 V2000
   28.3984   -1.6120    0.8033 C   0  0  0  0  0  0  0  0  0  0  0  0
   27.0220   -1.7532    0.7944 C   0  0  0  0  0  0  0  0  0  0  0  0
   26.4257   -2.5356    1.7757 C   0  0  0  0  0  0  0  0  0  0  0  0
   27.2248   -3.1561    2.7283 C   0  0  0  0  0  0  0  0  0  0  0  0
   29.1527   -2.2475    1.7714 C   0  0  0  0  0  0  0  0  0  0  0  0
   26.2488    0.5555    0.1028 N   0  0  0  0  0  0  0  0  0  0  0  0
   25.8605    1.3752   -1.0078 C   0  0  0  0  0  0  0  0  0  0  0  0
   26.7285    2.3762   -1.7361 C   0  0  0  0  0  0  0  0  0  0  0  0
   28.1816    2.5444   -1.4721 O   0  0  0  0  0  0  0  0  0  0  0  0
   24.6358    1.6170   -1.5781 C   0  0  0  0  0  0  0  0  0  0  0  0
   24.8037    2.5583   -2.5735 O   0  0  0  0  0  0  0  0  0  0  0  0
   26.0458    3.0315   -2.6920 N   0  0  0  0  0  0  0  0  0  0  0  0
   30.6515   -2.0989    1.7811 C   0  0  0  0  0  0  0  0  0  0  0  0
   26.2239   -1.0439   -0.2766 C   0  0  0  0  0  0  0  0  0  0  0  0
   24.9282   -2.7472    1.8410 C   0  0  0  0  0  0  0  0  0  0  0  0
   28.5543   -3.0056    2.7118 N   0  0  0  0  0  0  0  0  0  0  0  0
   28.9967   -0.8680   -0.1227 O   0  0  0  0  0  0  0  0  0  0  0  0
   23.4634   -0.3463    1.7854 O   0  0  0  0  0  0  0  0  0  0  0  0
   22.0977   -1.3872    3.5684 O   0  0  0  0  0  0  0  0  0  0  0  0
   24.0824   -0.0221    4.1566 O   0  0  0  0  0  0  0  0  0  0  0  0
   24.4223   -2.2977    3.0956 O   0  0  0  0  0  0  0  0  0  0  0  0
   23.4901   -0.9813    3.1545 P   0  0  2  0  0  0  0  0  0  0  0  0
   26.7585   -3.7789    3.5059 H   0  0  0  0  0  0  0  0  0  0  0  0
   27.2034    0.8147    0.3901 H   0  0  0  0  0  0  0  0  0  0  0  0
   25.5755    0.7128    0.8662 H   0  0  0  0  0  0  0  0  0  0  0  0
   28.7023    3.2164   -1.9794 H   0  0  0  0  0  0  0  0  0  0  0  0
   23.6854    1.1429   -1.2917 H   0  0  0  0  0  0  0  0  0  0  0  0
   31.0097   -2.0633    2.8205 H   0  0  0  0  0  0  0  0  0  0  0  0
   31.1083   -2.9561    1.2649 H   0  0  0  0  0  0  0  0  0  0  0  0
   30.9311   -1.1686    1.2649 H   0  0  0  0  0  0  0  0  0  0  0  0
   26.6825   -1.2074   -1.2629 H   0  0  0  0  0  0  0  0  0  0  0  0
   25.1931   -1.4253   -0.3220 H   0  0  0  0  0  0  0  0  0  0  0  0
   24.4456   -2.1811    1.0307 H   0  0  0  0  0  0  0  0  0  0  0  0
   24.7119   -3.8199    1.7300 H   0  0  0  0  0  0  0  0  0  0  0  0
   29.9815   -0.7670   -0.1162 H   0  0  0  0  0  0  0  0  0  0  0  0
  1  2  2  0
  1  5  1  0
  1 17  1  0
  2  3  1  0
  2 14  1  0
  3  4  2  0
  3 15  1  0
  4 16  1  0
  5 13  1  0
  5 16  2  0
  6  7  1  0
  6 14  1  0
  7  8  1  0
  7 10  2  0
  8  9  1  0
  8 12  2  0
 10 11  1  0
 11 12  1  0
 15 21  1  0
 22 18  1  6
 19 22  1  0
 20 22  2  0
 21 22  1  0
  4 23  1  0
  6 24  1  0
  6 25  1  0
  9 26  1  0
 10 27  1  0
 13 28  1  0
 13 29  1  0
 13 30  1  0
 14 31  1  0
 14 32  1  0
 15 33  1  0
 15 34  1  0
 17 35  1  0
M  CHG  3   6   1  18  -1  19  -1
M  END
>  <filename_input>  (10) 
8B8H_OJQ_docked.sdf

>  <pdb_id>  (10) 
8B8H_OJQ

>  <pose_rank>  (10) 
9

>  <num_atoms_heavy>  (10) 
22

>  <num_torsions>  (10) 
6

>  <pose>  (10) 
[28.39840610361996, -1.6119781445409351, 0.803260180106048, 2.7422035219756613, 0.13967442697792412, -3.864407438596518, -8.82953889409861, -12.926708544883496, -9.74567495350222, 3.131470393228153, 5.179358004156386, 0.7768942428140532]

>  <energy>  (10) 
-597.3997077006309

>  <inter_energy>  (10) 
-588.1815860110025

>  <intra_energy>  (10) 
5.399831636555323

>  <rmsd>  (10) 
4.23453

>  <sdf_rank>  (10) 
0

$$$$

     RDKit          3D

 35 36  0  0  0  0  0  0  0  0999 V2000
   25.0186   -3.1325    3.5619 C   0  0  0  0  0  0  0  0  0  0  0  0
   26.2082   -3.0729    2.8578 C   0  0  0  0  0  0  0  0  0  0  0  0
   26.3328   -2.1383    1.8372 C   0  0  0  0  0  0  0  0  0  0  0  0
   25.2627   -1.2997    1.5498 C   0  0  0  0  0  0  0  0  0  0  0  0
   23.9814   -2.2772    3.2411 C   0  0  0  0  0  0  0  0  0  0  0  0
   26.9124   -5.4935    2.6310 N   0  0  0  0  0  0  0  0  0  0  0  0
   28.0504   -6.2013    2.1211 C   0  0  0  0  0  0  0  0  0  0  0  0
   28.0570   -7.5964    1.5382 C   0  0  0  0  0  0  0  0  0  0  0  0
   26.8219   -8.3840    1.2863 O   0  0  0  0  0  0  0  0  0  0  0  0
   29.3940   -5.9264    2.1744 C   0  0  0  0  0  0  0  0  0  0  0  0
   30.0718   -6.9832    1.6009 O   0  0  0  0  0  0  0  0  0  0  0  0
   29.2982   -7.9979    1.2103 N   0  0  0  0  0  0  0  0  0  0  0  0
   22.6838   -2.3426    4.0031 C   0  0  0  0  0  0  0  0  0  0  0  0
   27.3253   -4.0206    3.2335 C   0  0  0  0  0  0  0  0  0  0  0  0
   27.5961   -2.0047    1.0140 C   0  0  0  0  0  0  0  0  0  0  0  0
   24.1219   -1.3808    2.2442 N   0  0  0  0  0  0  0  0  0  0  0  0
   24.8711   -4.0160    4.5450 O   0  0  0  0  0  0  0  0  0  0  0  0
   28.0003    1.2983    2.2270 O   0  0  0  0  0  0  0  0  0  0  0  0
   30.0703    0.7659    0.9783 O   0  0  0  0  0  0  0  0  0  0  0  0
   27.8604    0.5545   -0.1264 O   0  0  0  0  0  0  0  0  0  0  0  0
   28.5118   -1.1222    1.6581 O   0  0  0  0  0  0  0  0  0  0  0  0
   28.6166    0.4131    1.1711 P   0  0  2  0  0  0  0  0  0  0  0  0
   25.3547   -0.5597    0.7410 H   0  0  0  0  0  0  0  0  0  0  0  0
   26.2327   -5.3625    1.8683 H   0  0  0  0  0  0  0  0  0  0  0  0
   26.5080   -6.0498    3.3977 H   0  0  0  0  0  0  0  0  0  0  0  0
   26.8850   -9.2943    0.9023 H   0  0  0  0  0  0  0  0  0  0  0  0
   29.8512   -5.0211    2.6003 H   0  0  0  0  0  0  0  0  0  0  0  0
   22.8920   -2.3321    5.0832 H   0  0  0  0  0  0  0  0  0  0  0  0
   22.0608   -1.4747    3.7413 H   0  0  0  0  0  0  0  0  0  0  0  0
   22.1511   -3.2687    3.7413 H   0  0  0  0  0  0  0  0  0  0  0  0
   28.2746   -3.6825    2.7927 H   0  0  0  0  0  0  0  0  0  0  0  0
   27.4613   -4.0616    4.3243 H   0  0  0  0  0  0  0  0  0  0  0  0
   28.0631   -2.9943    0.9016 H   0  0  0  0  0  0  0  0  0  0  0  0
   27.3391   -1.5965    0.0254 H   0  0  0  0  0  0  0  0  0  0  0  0
   24.0198   -4.0585    5.0487 H   0  0  0  0  0  0  0  0  0  0  0  0
  1  2  2  0
  1  5  1  0
  1 17  1  0
  2  3  1  0
  2 14  1  0
  3  4  2  0
  3 15  1  0
  4 16  1  0
  5 13  1  0
  5 16  2  0
  6  7  1  0
  6 14  1  0
  7  8  1  0
  7 10  2  0
  8  9  1  0
  8 12  2  0
 10 11  1  0
 11 12  1  0
 15 21  1  0
 22 18  1  1
 19 22  1  0
 20 22  2  0
 21 22  1  0
  4 23  1  0
  6 24  1  0
  6 25  1  0
  9 26  1  0
 10 27  1  0
 13 28  1  0
 13 29  1  0
 13 30  1  0
 14 31  1  0
 14 32  1  0
 15 33  1  0
 15 34  1  0
 17 35  1  0
M  CHG  3   6   1  18  -1  19  -1
M  END
>  <filename_input>  (11) 
8B8H_OJQ_docked.sdf

>  <pdb_id>  (11) 
8B8H_OJQ

>  <pose_rank>  (11) 
10

>  <num_atoms_heavy>  (11) 
22

>  <num_torsions>  (11) 
6

>  <pose>  (11) 
[25.018572505950523, -3.1325334467963644, 3.5618623927969795, -1.4461046406189244, -0.45426889434071177, -1.6384393649134916, 0.04249584282203301, -0.7376122798545335, 1.6531311470826189, 3.7305085838414374, 1.514317371423787, 2.7868989541059137]

>  <energy>  (11) 
-473.7172299984497

>  <inter_energy>  (11) 
-479.91361782784077

>  <intra_energy>  (11) 
5.033063252775046

>  <rmsd>  (11) 
5.49323

>  <sdf_rank>  (11) 
0

$$$$

     RDKit          3D

 35 36  0  0  0  0  0  0  0  0999 V2000
   25.1154   -2.2689    2.0704 C   0  0  0  0  0  0  0  0  0  0  0  0
   26.3317   -2.1847    1.4162 C   0  0  0  0  0  0  0  0  0  0  0  0
   27.3630   -3.0260    1.8152 C   0  0  0  0  0  0  0  0  0  0  0  0
   27.1468   -3.9181    2.8585 C   0  0  0  0  0  0  0  0  0  0  0  0
   24.9462   -3.1724    3.1024 C   0  0  0  0  0  0  0  0  0  0  0  0
   26.6518    0.2899    0.9914 N   0  0  0  0  0  0  0  0  0  0  0  0
   27.3967    1.1943    0.1647 C   0  0  0  0  0  0  0  0  0  0  0  0
   28.8994    1.2384    0.0038 C   0  0  0  0  0  0  0  0  0  0  0  0
   29.8159    0.2291    0.5958 O   0  0  0  0  0  0  0  0  0  0  0  0
   27.0197    2.3185   -0.5264 C   0  0  0  0  0  0  0  0  0  0  0  0
   28.1491    2.8727   -1.0942 O   0  0  0  0  0  0  0  0  0  0  0  0
   29.2896    2.2480   -0.7948 N   0  0  0  0  0  0  0  0  0  0  0  0
   23.6246   -3.2635    3.8191 C   0  0  0  0  0  0  0  0  0  0  0  0
   26.4854   -1.1875    0.2896 C   0  0  0  0  0  0  0  0  0  0  0  0
   28.7264   -3.0008    1.1578 C   0  0  0  0  0  0  0  0  0  0  0  0
   25.9614   -3.9765    3.4765 N   0  0  0  0  0  0  0  0  0  0  0  0
   24.1097   -1.4772    1.7092 O   0  0  0  0  0  0  0  0  0  0  0  0
   31.4223   -5.6457    0.7483 O   0  0  0  0  0  0  0  0  0  0  0  0
   29.6893   -5.4427   -1.0076 O   0  0  0  0  0  0  0  0  0  0  0  0
   31.0899   -3.4862   -0.4082 O   0  0  0  0  0  0  0  0  0  0  0  0
   29.3303   -4.2901    1.2282 O   0  0  0  0  0  0  0  0  0  0  0  0
   30.4081   -4.7283    0.1094 P   0  0  2  0  0  0  0  0  0  0  0  0
   27.9605   -4.5846    3.1805 H   0  0  0  0  0  0  0  0  0  0  0  0
   27.1434    0.1783    1.8896 H   0  0  0  0  0  0  0  0  0  0  0  0
   25.7108    0.6853    1.1294 H   0  0  0  0  0  0  0  0  0  0  0  0
   30.7932    0.3069    0.4585 H   0  0  0  0  0  0  0  0  0  0  0  0
   25.9953    2.7099   -0.6127 H   0  0  0  0  0  0  0  0  0  0  0  0
   23.7951   -3.2518    4.9057 H   0  0  0  0  0  0  0  0  0  0  0  0
   22.9950   -2.4066    3.5374 H   0  0  0  0  0  0  0  0  0  0  0  0
   23.1185   -4.1987    3.5374 H   0  0  0  0  0  0  0  0  0  0  0  0
   27.3764   -1.4258   -0.3097 H   0  0  0  0  0  0  0  0  0  0  0  0
   25.6158   -1.2117   -0.3836 H   0  0  0  0  0  0  0  0  0  0  0  0
   28.6160   -2.7082    0.1032 H   0  0  0  0  0  0  0  0  0  0  0  0
   29.3652   -2.2758    1.6835 H   0  0  0  0  0  0  0  0  0  0  0  0
   23.2394   -1.5376    2.1773 H   0  0  0  0  0  0  0  0  0  0  0  0
  1  2  2  0
  1  5  1  0
  1 17  1  0
  2  3  1  0
  2 14  1  0
  3  4  2  0
  3 15  1  0
  4 16  1  0
  5 13  1  0
  5 16  2  0
  6  7  1  0
  6 14  1  0
  7  8  1  0
  7 10  2  0
  8  9  1  0
  8 12  2  0
 10 11  1  0
 11 12  1  0
 15 21  1  0
 22 18  1  1
 19 22  1  0
 20 22  2  0
 21 22  1  0
  4 23  1  0
  6 24  1  0
  6 25  1  0
  9 26  1  0
 10 27  1  0
 13 28  1  0
 13 29  1  0
 13 30  1  0
 14 31  1  0
 14 32  1  0
 15 33  1  0
 15 34  1  0
 17 35  1  0
M  CHG  3   6   1  18  -1  19  -1
M  END
>  <filename_input>  (12) 
8B8H_OJQ_docked.sdf

>  <pdb_id>  (12) 
8B8H_OJQ

>  <pose_rank>  (12) 
11

>  <num_atoms_heavy>  (12) 
22

>  <num_torsions>  (12) 
6

>  <pose>  (12) 
[25.11539798453332, -2.2688759439657766, 2.0703837211536142, 0.6977521092071896, 2.459188314738009, -0.9915285796079553, -6.228538831973378, -13.113596851133643, -9.112406844589083, -3.6649760252975123, -0.3646854718938248, 3.476612004797756]

>  <energy>  (12) 
-508.8335073754917

>  <inter_energy>  (12) 
-508.33968288984823

>  <intra_energy>  (12) 
3.741645407051953

>  <rmsd>  (12) 
5.21166

>  <sdf_rank>  (12) 
0

$$$$

     RDKit          3D

 35 36  0  0  0  0  0  0  0  0999 V2000
   25.2443   -0.9026    1.1632 C   0  0  0  0  0  0  0  0  0  0  0  0
   25.7352   -1.6246    2.2367 C   0  0  0  0  0  0  0  0  0  0  0  0
   24.8336   -2.2670    3.0763 C   0  0  0  0  0  0  0  0  0  0  0  0
   23.4720   -2.1609    2.8195 C   0  0  0  0  0  0  0  0  0  0  0  0
   23.8815   -0.8258    0.9465 C   0  0  0  0  0  0  0  0  0  0  0  0
   27.8022   -2.8160    1.3915 N   0  0  0  0  0  0  0  0  0  0  0  0
   29.2029   -2.6470    1.1350 C   0  0  0  0  0  0  0  0  0  0  0  0
   30.2145   -3.7452    0.8971 C   0  0  0  0  0  0  0  0  0  0  0  0
   29.8485   -5.1792    0.7591 O   0  0  0  0  0  0  0  0  0  0  0  0
   30.0163   -1.5439    1.2075 C   0  0  0  0  0  0  0  0  0  0  0  0
   31.3098   -1.9459    0.9419 O   0  0  0  0  0  0  0  0  0  0  0  0
   31.4598   -3.2581    0.7518 N   0  0  0  0  0  0  0  0  0  0  0  0
   23.3440   -0.0373   -0.2188 C   0  0  0  0  0  0  0  0  0  0  0  0
   27.2315   -1.6915    2.4463 C   0  0  0  0  0  0  0  0  0  0  0  0
   25.2812   -3.0762    4.2748 C   0  0  0  0  0  0  0  0  0  0  0  0
   23.0239   -1.4532    1.7760 N   0  0  0  0  0  0  0  0  0  0  0  0
   26.0837   -0.2785    0.3417 O   0  0  0  0  0  0  0  0  0  0  0  0
   24.2459   -5.7709    2.2100 O   0  0  0  0  0  0  0  0  0  0  0  0
   26.5596   -5.1164    2.7981 O   0  0  0  0  0  0  0  0  0  0  0  0
   25.3469   -6.7806    4.1796 O   0  0  0  0  0  0  0  0  0  0  0  0
   24.6402   -4.3493    4.2759 O   0  0  0  0  0  0  0  0  0  0  0  0
   25.2159   -5.5332    3.3418 P   0  0  2  0  0  0  0  0  0  0  0  0
   22.7535   -2.6650    3.4824 H   0  0  0  0  0  0  0  0  0  0  0  0
   27.2883   -2.7301    0.5030 H   0  0  0  0  0  0  0  0  0  0  0  0
   27.6649   -3.7463    1.8118 H   0  0  0  0  0  0  0  0  0  0  0  0
   30.5530   -5.8571    0.6040 H   0  0  0  0  0  0  0  0  0  0  0  0
   29.6935   -0.5178    1.4373 H   0  0  0  0  0  0  0  0  0  0  0  0
   22.7613    0.8177    0.1546 H   0  0  0  0  0  0  0  0  0  0  0  0
   24.1813    0.3290   -0.8310 H   0  0  0  0  0  0  0  0  0  0  0  0
   22.6970   -0.6827   -0.8310 H   0  0  0  0  0  0  0  0  0  0  0  0
   27.6879   -0.7120    2.2409 H   0  0  0  0  0  0  0  0  0  0  0  0
   27.4755   -1.9608    3.4845 H   0  0  0  0  0  0  0  0  0  0  0  0
   26.3712   -3.2181    4.2309 H   0  0  0  0  0  0  0  0  0  0  0  0
   25.0098   -2.5366    5.1941 H   0  0  0  0  0  0  0  0  0  0  0  0
   25.7323    0.2380   -0.4263 H   0  0  0  0  0  0  0  0  0  0  0  0
  1  2  2  0
  1  5  1  0
  1 17  1  0
  2  3  1  0
  2 14  1  0
  3  4  2  0
  3 15  1  0
  4 16  1  0
  5 13  1  0
  5 16  2  0
  6  7  1  0
  6 14  1  0
  7  8  1  0
  7 10  2  0
  8  9  1  0
  8 12  2  0
 10 11  1  0
 11 12  1  0
 15 21  1  0
 22 18  1  6
 19 22  1  0
 20 22  2  0
 21 22  1  0
  4 23  1  0
  6 24  1  0
  6 25  1  0
  9 26  1  0
 10 27  1  0
 13 28  1  0
 13 29  1  0
 13 30  1  0
 14 31  1  0
 14 32  1  0
 15 33  1  0
 15 34  1  0
 17 35  1  0
M  CHG  3   6   1  18  -1  19  -1
M  END
>  <filename_input>  (13) 
8B8H_OJQ_docked.sdf

>  <pdb_id>  (13) 
8B8H_OJQ

>  <pose_rank>  (13) 
12

>  <num_atoms_heavy>  (13) 
22

>  <num_torsions>  (13) 
6

>  <pose>  (13) 
[25.244324384886227, -0.9026070741214911, 1.163187580089848, -3.723834580683988, -1.8153910567777134, 1.5512589679285833, -2.6669375303004528, -0.4415877318372508, 1.0757498240685308, 2.961339460727993, -1.626538877915248, -1.0091876031382088]

>  <energy>  (13) 
-546.0915287626999

>  <inter_energy>  (13) 
-541.593812034947

>  <intra_energy>  (13) 
13.578296159166825

>  <rmsd>  (13) 
4.41823

>  <sdf_rank>  (13) 
0

$$$$

     RDKit          3D

 35 36  0  0  0  0  0  0  0  0999 V2000
   28.3860   -3.3236    1.9567 C   0  0  0  0  0  0  0  0  0  0  0  0
   27.0494   -3.0044    2.1178 C   0  0  0  0  0  0  0  0  0  0  0  0
   26.1675   -4.0043    2.5091 C   0  0  0  0  0  0  0  0  0  0  0  0
   26.6492   -5.2906    2.7195 C   0  0  0  0  0  0  0  0  0  0  0  0
   28.8198   -4.6171    2.1782 C   0  0  0  0  0  0  0  0  0  0  0  0
   26.2405   -1.4749    0.2704 N   0  0  0  0  0  0  0  0  0  0  0  0
   26.1678   -0.1134   -0.1737 C   0  0  0  0  0  0  0  0  0  0  0  0
   25.1018    0.4896   -1.0603 C   0  0  0  0  0  0  0  0  0  0  0  0
   23.8808   -0.2431   -1.4862 O   0  0  0  0  0  0  0  0  0  0  0  0
   27.0655    0.9215   -0.0915 C   0  0  0  0  0  0  0  0  0  0  0  0
   26.5321    2.0067   -0.7571 O   0  0  0  0  0  0  0  0  0  0  0  0
   25.3573    1.7787   -1.3472 N   0  0  0  0  0  0  0  0  0  0  0  0
   30.2735   -4.9685    1.9998 C   0  0  0  0  0  0  0  0  0  0  0  0
   26.6058   -1.5799    1.8699 C   0  0  0  0  0  0  0  0  0  0  0  0
   24.6892   -3.7456    2.7069 C   0  0  0  0  0  0  0  0  0  0  0  0
   27.9465   -5.5731    2.5532 N   0  0  0  0  0  0  0  0  0  0  0  0
   29.2535   -2.3868    1.5844 O   0  0  0  0  0  0  0  0  0  0  0  0
   24.2985   -0.1097    3.6499 O   0  0  0  0  0  0  0  0  0  0  0  0
   23.6987   -1.3123    1.5711 O   0  0  0  0  0  0  0  0  0  0  0  0
   22.2433   -1.4812    3.5716 O   0  0  0  0  0  0  0  0  0  0  0  0
   24.4966   -2.6397    3.5854 O   0  0  0  0  0  0  0  0  0  0  0  0
   23.6630   -1.3538    3.0783 P   0  0  2  0  0  0  0  0  0  0  0  0
   25.9552   -6.0869    3.0267 H   0  0  0  0  0  0  0  0  0  0  0  0
   25.3300   -1.9276    0.1064 H   0  0  0  0  0  0  0  0  0  0  0  0
   26.9894   -1.9436   -0.2592 H   0  0  0  0  0  0  0  0  0  0  0  0
   23.2146    0.2013   -2.0683 H   0  0  0  0  0  0  0  0  0  0  0  0
   28.0407    0.8913    0.4166 H   0  0  0  0  0  0  0  0  0  0  0  0
   30.7468   -5.0829    2.9861 H   0  0  0  0  0  0  0  0  0  0  0  0
   30.3566   -5.9126    1.4414 H   0  0  0  0  0  0  0  0  0  0  0  0
   30.7786   -4.1666    1.4414 H   0  0  0  0  0  0  0  0  0  0  0  0
   25.7192   -1.3470    2.4780 H   0  0  0  0  0  0  0  0  0  0  0  0
   27.3948   -0.8646    2.1450 H   0  0  0  0  0  0  0  0  0  0  0  0
   24.2260   -3.5223    1.7346 H   0  0  0  0  0  0  0  0  0  0  0  0
   24.2240   -4.6396    3.1478 H   0  0  0  0  0  0  0  0  0  0  0  0
   30.2098   -2.6154    1.4692 H   0  0  0  0  0  0  0  0  0  0  0  0
  1  2  2  0
  1  5  1  0
  1 17  1  0
  2  3  1  0
  2 14  1  0
  3  4  2  0
  3 15  1  0
  4 16  1  0
  5 13  1  0
  5 16  2  0
  6  7  1  0
  6 14  1  0
  7  8  1  0
  7 10  2  0
  8  9  1  0
  8 12  2  0
 10 11  1  0
 11 12  1  0
 15 21  1  0
 22 18  1  1
 19 22  1  0
 20 22  2  0
 21 22  1  0
  4 23  1  0
  6 24  1  0
  6 25  1  0
  9 26  1  0
 10 27  1  0
 13 28  1  0
 13 29  1  0
 13 30  1  0
 14 31  1  0
 14 32  1  0
 15 33  1  0
 15 34  1  0
 17 35  1  0
M  CHG  3   6   1  18  -1  19  -1
M  END
>  <filename_input>  (14) 
8B8H_OJQ_docked.sdf

>  <pdb_id>  (14) 
8B8H_OJQ

>  <pose_rank>  (14) 
13

>  <num_atoms_heavy>  (14) 
22

>  <num_torsions>  (14) 
6

>  <pose>  (14) 
[28.386041685348896, -3.3236374239465842, 1.956742393481149, 1.4157116338882596, 1.3903516091631218, -4.997186631930186, 0.2641549151218436, 0.20976755068802205, 2.471600662932712, 4.332001974134078, -0.9116361105463909, -1.5991024069329842]

>  <energy>  (14) 
-543.4762385552422

>  <inter_energy>  (14) 
-614.207919016343

>  <intra_energy>  (14) 
68.25056130673897

>  <rmsd>  (14) 
3.13568

>  <sdf_rank>  (14) 
0

$$$$

     RDKit          3D

 35 36  0  0  0  0  0  0  0  0999 V2000
   27.6190    0.4776   -0.0429 C   0  0  0  0  0  0  0  0  0  0  0  0
   26.4665   -0.2485   -0.2863 C   0  0  0  0  0  0  0  0  0  0  0  0
   25.4996    0.2959   -1.1225 C   0  0  0  0  0  0  0  0  0  0  0  0
   25.7132    1.5500   -1.6817 C   0  0  0  0  0  0  0  0  0  0  0  0
   27.7883    1.7210   -0.6221 C   0  0  0  0  0  0  0  0  0  0  0  0
   26.3631   -1.3607    1.9850 N   0  0  0  0  0  0  0  0  0  0  0  0
   26.1181   -2.5689    2.7174 C   0  0  0  0  0  0  0  0  0  0  0  0
   24.8570   -2.9257    3.4713 C   0  0  0  0  0  0  0  0  0  0  0  0
   23.6204   -2.1018    3.4341 O   0  0  0  0  0  0  0  0  0  0  0  0
   26.9494   -3.5979    3.0829 C   0  0  0  0  0  0  0  0  0  0  0  0
   26.2253   -4.4803    3.8589 O   0  0  0  0  0  0  0  0  0  0  0  0
   24.9694   -4.1049    4.1086 N   0  0  0  0  0  0  0  0  0  0  0  0
   29.0399    2.5154   -0.3557 C   0  0  0  0  0  0  0  0  0  0  0  0
   26.3113   -1.6068    0.3603 C   0  0  0  0  0  0  0  0  0  0  0  0
   24.2083   -0.4266   -1.4421 C   0  0  0  0  0  0  0  0  0  0  0  0
   26.8355    2.2325   -1.4269 N   0  0  0  0  0  0  0  0  0  0  0  0
   28.5625   -0.0189    0.7521 O   0  0  0  0  0  0  0  0  0  0  0  0
   22.6110    0.1688   -4.8859 O   0  0  0  0  0  0  0  0  0  0  0  0
   21.8817    0.9419   -2.6503 O   0  0  0  0  0  0  0  0  0  0  0  0
   23.8937    1.9269   -3.7134 O   0  0  0  0  0  0  0  0  0  0  0  0
   23.9956   -0.4536   -2.8513 O   0  0  0  0  0  0  0  0  0  0  0  0
   23.0699    0.6752   -3.5401 P   0  0  2  0  0  0  0  0  0  0  0  0
   24.9499    1.9872   -2.3422 H   0  0  0  0  0  0  0  0  0  0  0  0
   25.6465   -0.6660    2.2394 H   0  0  0  0  0  0  0  0  0  0  0  0
   27.3069   -1.0268    2.2270 H   0  0  0  0  0  0  0  0  0  0  0  0
   22.8225   -2.3833    3.9480 H   0  0  0  0  0  0  0  0  0  0  0  0
   28.0089   -3.7015    2.8055 H   0  0  0  0  0  0  0  0  0  0  0  0
   29.1897    2.6105    0.7299 H   0  0  0  0  0  0  0  0  0  0  0  0
   29.9033    1.9997   -0.8012 H   0  0  0  0  0  0  0  0  0  0  0  0
   28.9407    3.5163   -0.8012 H   0  0  0  0  0  0  0  0  0  0  0  0
   25.3484   -2.0556    0.0747 H   0  0  0  0  0  0  0  0  0  0  0  0
   27.1071   -2.2940    0.0371 H   0  0  0  0  0  0  0  0  0  0  0  0
   24.2655   -1.4577   -1.0633 H   0  0  0  0  0  0  0  0  0  0  0  0
   23.3721    0.1035   -0.9627 H   0  0  0  0  0  0  0  0  0  0  0  0
   29.3870    0.5007    0.9261 H   0  0  0  0  0  0  0  0  0  0  0  0
  1  2  2  0
  1  5  1  0
  1 17  1  0
  2  3  1  0
  2 14  1  0
  3  4  2  0
  3 15  1  0
  4 16  1  0
  5 13  1  0
  5 16  2  0
  6  7  1  0
  6 14  1  0
  7  8  1  0
  7 10  2  0
  8  9  1  0
  8 12  2  0
 10 11  1  0
 11 12  1  0
 15 21  1  0
 22 18  1  6
 19 22  1  0
 20 22  2  0
 21 22  1  0
  4 23  1  0
  6 24  1  0
  6 25  1  0
  9 26  1  0
 10 27  1  0
 13 28  1  0
 13 29  1  0
 13 30  1  0
 14 31  1  0
 14 32  1  0
 15 33  1  0
 15 34  1  0
 17 35  1  0
M  CHG  3   6   1  18  -1  19  -1
M  END
>  <filename_input>  (15) 
8B8H_OJQ_docked.sdf

>  <pdb_id>  (15) 
8B8H_OJQ

>  <pose_rank>  (15) 
14

>  <num_atoms_heavy>  (15) 
22

>  <num_torsions>  (15) 
6

>  <pose>  (15) 
[27.61896689474655, 0.4775682144406906, -0.04291103913616982, -3.4176511075295513, 1.1355921147314474, -0.22364425835304047, -31.644507375061828, -25.288736883188744, 9.2627738247428, 9.267464042098847, -4.698732606376452, 4.383683223865178]

>  <energy>  (15) 
-383.2608718607453

>  <inter_energy>  (15) 
-436.39452398073286

>  <intra_energy>  (15) 
47.32834005153187

>  <rmsd>  (15) 
6.89079

>  <sdf_rank>  (15) 
0

$$$$

     RDKit          3D

 35 36  0  0  0  0  0  0  0  0999 V2000
   26.2171   -2.4867    2.5684 C   0  0  0  0  0  0  0  0  0  0  0  0
   26.5508   -3.8250    2.6787 C   0  0  0  0  0  0  0  0  0  0  0  0
   25.5356   -4.7501    2.8890 C   0  0  0  0  0  0  0  0  0  0  0  0
   24.2225   -4.3066    2.9889 C   0  0  0  0  0  0  0  0  0  0  0  0
   24.8967   -2.0921    2.6734 C   0  0  0  0  0  0  0  0  0  0  0  0
   28.3038   -4.4200    0.9526 N   0  0  0  0  0  0  0  0  0  0  0  0
   29.6288   -3.9996    0.6009 C   0  0  0  0  0  0  0  0  0  0  0  0
   30.5714   -4.6959   -0.3545 C   0  0  0  0  0  0  0  0  0  0  0  0
   30.1807   -5.8678   -1.1810 O   0  0  0  0  0  0  0  0  0  0  0  0
   30.4447   -3.0263    1.1212 C   0  0  0  0  0  0  0  0  0  0  0  0
   31.6609   -3.0929    0.4719 O   0  0  0  0  0  0  0  0  0  0  0  0
   31.7668   -4.0823   -0.4172 N   0  0  0  0  0  0  0  0  0  0  0  0
   24.5309   -0.6356    2.5578 C   0  0  0  0  0  0  0  0  0  0  0  0
   28.0040   -4.2257    2.5574 C   0  0  0  0  0  0  0  0  0  0  0  0
   25.8091   -6.2328    3.0240 C   0  0  0  0  0  0  0  0  0  0  0  0
   23.9277   -3.0058    2.8819 N   0  0  0  0  0  0  0  0  0  0  0  0
   27.1674   -1.5787    2.3654 O   0  0  0  0  0  0  0  0  0  0  0  0
   28.2847   -7.3120    1.6642 O   0  0  0  0  0  0  0  0  0  0  0  0
   26.7342   -9.1760    2.1629 O   0  0  0  0  0  0  0  0  0  0  0  0
   26.8345   -8.2171   -0.1216 O   0  0  0  0  0  0  0  0  0  0  0  0
   25.7887   -6.8555    1.7419 O   0  0  0  0  0  0  0  0  0  0  0  0
   26.9384   -7.9199    1.3536 P   0  0  2  0  0  0  0  0  0  0  0  0
   23.4150   -5.0342    3.1581 H   0  0  0  0  0  0  0  0  0  0  0  0
   27.6241   -3.8614    0.4170 H   0  0  0  0  0  0  0  0  0  0  0  0
   28.2178   -5.4222    0.7312 H   0  0  0  0  0  0  0  0  0  0  0  0
   30.8395   -6.2852   -1.7908 H   0  0  0  0  0  0  0  0  0  0  0  0
   30.1760   -2.3165    1.9175 H   0  0  0  0  0  0  0  0  0  0  0  0
   24.4224   -0.2039    3.5637 H   0  0  0  0  0  0  0  0  0  0  0  0
   25.3226   -0.1009    2.0127 H   0  0  0  0  0  0  0  0  0  0  0  0
   23.5804   -0.5385    2.0127 H   0  0  0  0  0  0  0  0  0  0  0  0
   28.6509   -3.4384    2.9719 H   0  0  0  0  0  0  0  0  0  0  0  0
   28.2086   -5.1517    3.1147 H   0  0  0  0  0  0  0  0  0  0  0  0
   26.7976   -6.3797    3.4837 H   0  0  0  0  0  0  0  0  0  0  0  0
   25.0305   -6.6856    3.6555 H   0  0  0  0  0  0  0  0  0  0  0  0
   26.9285   -0.6212    2.2865 H   0  0  0  0  0  0  0  0  0  0  0  0
  1  2  2  0
  1  5  1  0
  1 17  1  0
  2  3  1  0
  2 14  1  0
  3  4  2  0
  3 15  1  0
  4 16  1  0
  5 13  1  0
  5 16  2  0
  6  7  1  0
  6 14  1  0
  7  8  1  0
  7 10  2  0
  8  9  1  0
  8 12  2  0
 10 11  1  0
 11 12  1  0
 15 21  1  0
 22 18  1  6
 19 22  1  0
 20 22  2  0
 21 22  1  0
  4 23  1  0
  6 24  1  0
  6 25  1  0
  9 26  1  0
 10 27  1  0
 13 28  1  0
 13 29  1  0
 13 30  1  0
 14 31  1  0
 14 32  1  0
 15 33  1  0
 15 34  1  0
 17 35  1  0
M  CHG  3   6   1  18  -1  19  -1
M  END
>  <filename_input>  (16) 
8B8H_OJQ_docked.sdf

>  <pdb_id>  (16) 
8B8H_OJQ

>  <pose_rank>  (16) 
15

>  <num_atoms_heavy>  (16) 
22

>  <num_torsions>  (16) 
6

>  <pose>  (16) 
[26.21706984594353, -2.48666546039463, 2.5683504181387917, -3.243208092044394, -1.3861284379709178, 0.7376338544958545, -2.784796894028705, -0.6948385346463225, 0.977550558021085, 3.7014180550273297, -0.6698963925933612, 0.028208033383609443]

>  <energy>  (16) 
-549.8157830880102

>  <inter_energy>  (16) 
-561.7563263479939

>  <intra_energy>  (16) 
13.457918298173057

>  <rmsd>  (16) 
5.02274

>  <sdf_rank>  (16) 
0

$$$$

     RDKit          3D

 35 36  0  0  0  0  0  0  0  0999 V2000
   28.8433   -1.5311    1.4413 C   0  0  0  0  0  0  0  0  0  0  0  0
   29.0402   -2.8662    1.7466 C   0  0  0  0  0  0  0  0  0  0  0  0
   30.1454   -3.5166    1.2115 C   0  0  0  0  0  0  0  0  0  0  0  0
   31.0126   -2.8134    0.3841 C   0  0  0  0  0  0  0  0  0  0  0  0
   29.7332   -0.8722    0.6142 C   0  0  0  0  0  0  0  0  0  0  0  0
   26.8876   -2.4527    3.0121 N   0  0  0  0  0  0  0  0  0  0  0  0
   25.5832   -3.0458    3.0674 C   0  0  0  0  0  0  0  0  0  0  0  0
   24.2858   -2.3409    3.3926 C   0  0  0  0  0  0  0  0  0  0  0  0
   24.1757   -0.8690    3.5682 O   0  0  0  0  0  0  0  0  0  0  0  0
   25.1750   -4.3556    3.0303 C   0  0  0  0  0  0  0  0  0  0  0  0
   23.8065   -4.3842    3.2075 O   0  0  0  0  0  0  0  0  0  0  0  0
   23.2458   -3.1933    3.4266 N   0  0  0  0  0  0  0  0  0  0  0  0
   29.5192    0.5801    0.2769 C   0  0  0  0  0  0  0  0  0  0  0  0
   28.0502   -3.5592    2.6559 C   0  0  0  0  0  0  0  0  0  0  0  0
   30.4374   -4.9756    1.4900 C   0  0  0  0  0  0  0  0  0  0  0  0
   30.7967   -1.5233    0.1022 N   0  0  0  0  0  0  0  0  0  0  0  0
   27.7951   -0.8823    1.9402 O   0  0  0  0  0  0  0  0  0  0  0  0
   30.6090   -8.1208   -0.2542 O   0  0  0  0  0  0  0  0  0  0  0  0
   28.6146   -6.9241    0.5929 O   0  0  0  0  0  0  0  0  0  0  0  0
   29.4506   -6.4838   -1.6997 O   0  0  0  0  0  0  0  0  0  0  0  0
   30.7887   -5.6461    0.2822 O   0  0  0  0  0  0  0  0  0  0  0  0
   29.8389   -6.8230   -0.2821 P   0  0  2  0  0  0  0  0  0  0  0  0
   31.8876   -3.3238   -0.0446 H   0  0  0  0  0  0  0  0  0  0  0  0
   26.8904   -1.7216    2.2866 H   0  0  0  0  0  0  0  0  0  0  0  0
   27.0975   -2.0567    3.9395 H   0  0  0  0  0  0  0  0  0  0  0  0
   23.2996   -0.4600    3.7807 H   0  0  0  0  0  0  0  0  0  0  0  0
   25.8256   -5.2306    2.8846 H   0  0  0  0  0  0  0  0  0  0  0  0
   29.4333    1.1634    1.2055 H   0  0  0  0  0  0  0  0  0  0  0  0
   30.3726    0.9496   -0.3106 H   0  0  0  0  0  0  0  0  0  0  0  0
   28.5955    0.6878   -0.3106 H   0  0  0  0  0  0  0  0  0  0  0  0
   27.6059   -4.4254    2.1438 H   0  0  0  0  0  0  0  0  0  0  0  0
   28.5403   -3.9283    3.5689 H   0  0  0  0  0  0  0  0  0  0  0  0
   31.2719   -5.0496    2.2028 H   0  0  0  0  0  0  0  0  0  0  0  0
   29.5386   -5.4471    1.9142 H   0  0  0  0  0  0  0  0  0  0  0  0
   27.6543    0.0730    1.7217 H   0  0  0  0  0  0  0  0  0  0  0  0
  1  2  2  0
  1  5  1  0
  1 17  1  0
  2  3  1  0
  2 14  1  0
  3  4  2  0
  3 15  1  0
  4 16  1  0
  5 13  1  0
  5 16  2  0
  6  7  1  0
  6 14  1  0
  7  8  1  0
  7 10  2  0
  8  9  1  0
  8 12  2  0
 10 11  1  0
 11 12  1  0
 15 21  1  0
 22 18  1  6
 19 22  1  0
 20 22  2  0
 21 22  1  0
  4 23  1  0
  6 24  1  0
  6 25  1  0
  9 26  1  0
 10 27  1  0
 13 28  1  0
 13 29  1  0
 13 30  1  0
 14 31  1  0
 14 32  1  0
 15 33  1  0
 15 34  1  0
 17 35  1  0
M  CHG  3   6   1  18  -1  19  -1
M  END
>  <filename_input>  (17) 
8B8H_OJQ_docked.sdf

>  <pdb_id>  (17) 
8B8H_OJQ

>  <pose_rank>  (17) 
16

>  <num_atoms_heavy>  (17) 
22

>  <num_torsions>  (17) 
6

>  <pose>  (17) 
[28.843325485270796, -1.5310971728931544, 1.4413103805071765, -1.5220685124598705, -0.10487887904090826, -3.3991045131529853, -1.2422041448665775, -0.7357787137579717, -4.61234734664257, 1.3161835176701904, 1.2272553354433138, -1.1214830125628446]

>  <energy>  (17) 
-471.6030909147917

>  <inter_energy>  (17) 
-526.191707537613

>  <intra_energy>  (17) 
61.05771102104139

>  <rmsd>  (17) 
6.89506

>  <sdf_rank>  (17) 
0

$$$$

     RDKit          3D

 35 36  0  0  0  0  0  0  0  0999 V2000
   25.1191    0.4945   -1.2153 C   0  0  0  0  0  0  0  0  0  0  0  0
   25.8748   -0.3042   -0.3753 C   0  0  0  0  0  0  0  0  0  0  0  0
   27.1458    0.1245   -0.0128 C   0  0  0  0  0  0  0  0  0  0  0  0
   27.6217    1.3330   -0.5070 C   0  0  0  0  0  0  0  0  0  0  0  0
   25.6339    1.6894   -1.6815 C   0  0  0  0  0  0  0  0  0  0  0  0
   25.0883   -1.4428    1.7439 N   0  0  0  0  0  0  0  0  0  0  0  0
   24.9502   -2.7125    2.3959 C   0  0  0  0  0  0  0  0  0  0  0  0
   26.0690   -3.5763    2.9328 C   0  0  0  0  0  0  0  0  0  0  0  0
   27.4898   -3.1416    2.9762 O   0  0  0  0  0  0  0  0  0  0  0  0
   23.8705   -3.5455    2.5499 C   0  0  0  0  0  0  0  0  0  0  0  0
   24.3001   -4.6924    3.1866 O   0  0  0  0  0  0  0  0  0  0  0  0
   25.6115   -4.7397    3.4290 N   0  0  0  0  0  0  0  0  0  0  0  0
   24.8152    2.5590   -2.5992 C   0  0  0  0  0  0  0  0  0  0  0  0
   25.2833   -1.6051    0.1196 C   0  0  0  0  0  0  0  0  0  0  0  0
   28.0421   -0.6857    0.8991 C   0  0  0  0  0  0  0  0  0  0  0  0
   26.8712    2.0845   -1.3208 N   0  0  0  0  0  0  0  0  0  0  0  0
   23.8986    0.1105   -1.5781 O   0  0  0  0  0  0  0  0  0  0  0  0
   30.1485   -3.1460    1.0099 O   0  0  0  0  0  0  0  0  0  0  0  0
   31.8057   -1.3944    0.4503 O   0  0  0  0  0  0  0  0  0  0  0  0
   30.4731   -1.2276    2.5348 O   0  0  0  0  0  0  0  0  0  0  0  0
   29.3282   -0.8489    0.3065 O   0  0  0  0  0  0  0  0  0  0  0  0
   30.4706   -1.6737    1.0939 P   0  0  2  0  0  0  0  0  0  0  0  0
   28.6282    1.6761   -0.2256 H   0  0  0  0  0  0  0  0  0  0  0  0
   24.2427   -0.8828    1.9234 H   0  0  0  0  0  0  0  0  0  0  0  0
   25.9276   -0.9801    2.1213 H   0  0  0  0  0  0  0  0  0  0  0  0
   28.1824   -3.7490    3.3388 H   0  0  0  0  0  0  0  0  0  0  0  0
   22.8414   -3.3357    2.2228 H   0  0  0  0  0  0  0  0  0  0  0  0
   24.1827    3.2307   -2.0003 H   0  0  0  0  0  0  0  0  0  0  0  0
   25.4864    3.1563   -3.2338 H   0  0  0  0  0  0  0  0  0  0  0  0
   24.1785    1.9250   -3.2338 H   0  0  0  0  0  0  0  0  0  0  0  0
   24.3120   -1.7886   -0.3630 H   0  0  0  0  0  0  0  0  0  0  0  0
   25.9388   -2.4557   -0.1188 H   0  0  0  0  0  0  0  0  0  0  0  0
   28.1490   -0.1634    1.8613 H   0  0  0  0  0  0  0  0  0  0  0  0
   27.5915   -1.6765    1.0579 H   0  0  0  0  0  0  0  0  0  0  0  0
   23.3580    0.6821   -2.1791 H   0  0  0  0  0  0  0  0  0  0  0  0
  1  2  2  0
  1  5  1  0
  1 17  1  0
  2  3  1  0
  2 14  1  0
  3  4  2  0
  3 15  1  0
  4 16  1  0
  5 13  1  0
  5 16  2  0
  6  7  1  0
  6 14  1  0
  7  8  1  0
  7 10  2  0
  8  9  1  0
  8 12  2  0
 10 11  1  0
 11 12  1  0
 15 21  1  0
 22 18  1  1
 19 22  1  0
 20 22  2  0
 21 22  1  0
  4 23  1  0
  6 24  1  0
  6 25  1  0
  9 26  1  0
 10 27  1  0
 13 28  1  0
 13 29  1  0
 13 30  1  0
 14 31  1  0
 14 32  1  0
 15 33  1  0
 15 34  1  0
 17 35  1  0
M  CHG  3   6   1  18  -1  19  -1
M  END
>  <filename_input>  (18) 
8B8H_OJQ_docked.sdf

>  <pdb_id>  (18) 
8B8H_OJQ

>  <pose_rank>  (18) 
17

>  <num_atoms_heavy>  (18) 
22

>  <num_torsions>  (18) 
6

>  <pose>  (18) 
[25.119128777749737, 0.4944939394579251, -1.21534450327717, 0.08734469649045586, 0.4920561312177466, 3.224767743597927, -3.270132446547365, 0.2538350030342501, 0.10066429626926575, 1.2130850799097694, 0.09927863145560709, 2.2022116589664287]

>  <energy>  (18) 
-448.1458293470762

>  <inter_energy>  (18) 
-449.8246620068391

>  <intra_energy>  (18) 
12.269275880690998

>  <rmsd>  (18) 
7.00168

>  <sdf_rank>  (18) 
0

$$$$

     RDKit          3D

 35 36  0  0  0  0  0  0  0  0999 V2000
   25.4512   -1.7064    1.4838 C   0  0  0  0  0  0  0  0  0  0  0  0
   25.8257   -2.5428    2.5205 C   0  0  0  0  0  0  0  0  0  0  0  0
   24.8448   -3.0139    3.3846 C   0  0  0  0  0  0  0  0  0  0  0  0
   23.5243   -2.6281    3.1883 C   0  0  0  0  0  0  0  0  0  0  0  0
   24.1250   -1.3502    1.3270 C   0  0  0  0  0  0  0  0  0  0  0  0
   28.1466   -1.5383    2.4187 N   0  0  0  0  0  0  0  0  0  0  0  0
   29.3513   -1.7854    1.6813 C   0  0  0  0  0  0  0  0  0  0  0  0
   30.0553   -0.8195    0.7552 C   0  0  0  0  0  0  0  0  0  0  0  0
   29.6497    0.6011    0.5924 O   0  0  0  0  0  0  0  0  0  0  0  0
   30.0669   -2.9360    1.4633 C   0  0  0  0  0  0  0  0  0  0  0  0
   31.1066   -2.6393    0.6053 O   0  0  0  0  0  0  0  0  0  0  0  0
   31.1259   -1.3799    0.1645 N   0  0  0  0  0  0  0  0  0  0  0  0
   23.7150   -0.4366    0.2019 C   0  0  0  0  0  0  0  0  0  0  0  0
   27.2841   -2.9161    2.6647 C   0  0  0  0  0  0  0  0  0  0  0  0
   25.1640   -3.9305    4.5462 C   0  0  0  0  0  0  0  0  0  0  0  0
   23.1899   -1.8151    2.1795 N   0  0  0  0  0  0  0  0  0  0  0  0
   26.3680   -1.2412    0.6401 O   0  0  0  0  0  0  0  0  0  0  0  0
   24.3277   -5.8093    2.5681 O   0  0  0  0  0  0  0  0  0  0  0  0
   26.6804   -6.5082    2.2458 O   0  0  0  0  0  0  0  0  0  0  0  0
   25.3859   -7.3501    4.1859 O   0  0  0  0  0  0  0  0  0  0  0  0
   26.1072   -4.9216    4.1459 O   0  0  0  0  0  0  0  0  0  0  0  0
   25.6157   -6.1799    3.2624 P   0  0  2  0  0  0  0  0  0  0  0  0
   22.7440   -2.9957    3.8709 H   0  0  0  0  0  0  0  0  0  0  0  0
   28.3931   -1.1322    3.3326 H   0  0  0  0  0  0  0  0  0  0  0  0
   27.5636   -0.8907    1.8695 H   0  0  0  0  0  0  0  0  0  0  0  0
   30.1471    1.1899   -0.0289 H   0  0  0  0  0  0  0  0  0  0  0  0
   29.8496   -3.9233    1.8970 H   0  0  0  0  0  0  0  0  0  0  0  0
   23.2980    0.4926    0.6175 H   0  0  0  0  0  0  0  0  0  0  0  0
   24.5932   -0.1999   -0.4167 H   0  0  0  0  0  0  0  0  0  0  0  0
   22.9544   -0.9353   -0.4167 H   0  0  0  0  0  0  0  0  0  0  0  0
   27.4774   -3.3101    3.6733 H   0  0  0  0  0  0  0  0  0  0  0  0
   27.5677   -3.6964    1.9430 H   0  0  0  0  0  0  0  0  0  0  0  0
   25.5871   -3.3382    5.3709 H   0  0  0  0  0  0  0  0  0  0  0  0
   24.2397   -4.4270    4.8764 H   0  0  0  0  0  0  0  0  0  0  0  0
   26.1000   -0.6428   -0.1016 H   0  0  0  0  0  0  0  0  0  0  0  0
  1  2  2  0
  1  5  1  0
  1 17  1  0
  2  3  1  0
  2 14  1  0
  3  4  2  0
  3 15  1  0
  4 16  1  0
  5 13  1  0
  5 16  2  0
  6  7  1  0
  6 14  1  0
  7  8  1  0
  7 10  2  0
  8  9  1  0
  8 12  2  0
 10 11  1  0
 11 12  1  0
 15 21  1  0
 22 18  1  6
 19 22  1  0
 20 22  2  0
 21 22  1  0
  4 23  1  0
  6 24  1  0
  6 25  1  0
  9 26  1  0
 10 27  1  0
 13 28  1  0
 13 29  1  0
 13 30  1  0
 14 31  1  0
 14 32  1  0
 15 33  1  0
 15 34  1  0
 17 35  1  0
M  CHG  3   6   1  18  -1  19  -1
M  END
>  <filename_input>  (19) 
8B8H_OJQ_docked.sdf

>  <pdb_id>  (19) 
8B8H_OJQ

>  <pose_rank>  (19) 
18

>  <num_atoms_heavy>  (19) 
22

>  <num_torsions>  (19) 
6

>  <pose>  (19) 
[25.4511932204642, -1.7063927768618818, 1.4837814341091513, -3.647054047931513, -1.4155926159544068, 1.8072326892376354, -0.5301995648570453, -5.688302902451268, 1.1790852248818127, 10.798954076257841, 1.9023368988036775, 1.2781952094531623]

>  <energy>  (19) 
-494.3358163866368

>  <inter_energy>  (19) 
-554.8846311719475

>  <intra_energy>  (19) 
73.29474449247701

>  <rmsd>  (19) 
4.3232

>  <sdf_rank>  (19) 
0

$$$$

     RDKit          3D

 35 36  0  0  0  0  0  0  0  0999 V2000
   29.6373   -5.8021    0.6029 C   0  0  0  0  0  0  0  0  0  0  0  0
   29.0345   -4.7013    1.1855 C   0  0  0  0  0  0  0  0  0  0  0  0
   27.7530   -4.8397    1.7045 C   0  0  0  0  0  0  0  0  0  0  0  0
   27.1143   -6.0708    1.6177 C   0  0  0  0  0  0  0  0  0  0  0  0
   28.9636   -7.0072    0.5400 C   0  0  0  0  0  0  0  0  0  0  0  0
   28.7125   -2.2366    1.6631 N   0  0  0  0  0  0  0  0  0  0  0  0
   29.1491   -0.9278    1.2725 C   0  0  0  0  0  0  0  0  0  0  0  0
   28.3361    0.1098    0.5320 C   0  0  0  0  0  0  0  0  0  0  0  0
   26.8904   -0.0494    0.2252 O   0  0  0  0  0  0  0  0  0  0  0  0
   30.3888   -0.3392    1.2840 C   0  0  0  0  0  0  0  0  0  0  0  0
   30.2745    0.9142    0.7173 O   0  0  0  0  0  0  0  0  0  0  0  0
   29.0575    1.2114    0.2578 N   0  0  0  0  0  0  0  0  0  0  0  0
   29.6157   -8.2061   -0.0972 C   0  0  0  0  0  0  0  0  0  0  0  0
   29.7979   -3.3970    1.2410 C   0  0  0  0  0  0  0  0  0  0  0  0
   27.0171   -3.6890    2.3570 C   0  0  0  0  0  0  0  0  0  0  0  0
   27.7190   -7.1185    1.0458 N   0  0  0  0  0  0  0  0  0  0  0  0
   30.8639   -5.6998    0.0991 O   0  0  0  0  0  0  0  0  0  0  0  0
   23.9236   -4.7755    4.3102 O   0  0  0  0  0  0  0  0  0  0  0  0
   26.0902   -3.8810    5.1060 O   0  0  0  0  0  0  0  0  0  0  0  0
   24.4314   -2.3702    4.0502 O   0  0  0  0  0  0  0  0  0  0  0  0
   25.6613   -4.0511    2.6073 O   0  0  0  0  0  0  0  0  0  0  0  0
   25.0130   -3.7619    4.0570 P   0  0  2  0  0  0  0  0  0  0  0  0
   26.0987   -6.1855    2.0244 H   0  0  0  0  0  0  0  0  0  0  0  0
   28.5869   -2.2544    2.6852 H   0  0  0  0  0  0  0  0  0  0  0  0
   27.8270   -2.4360    1.1763 H   0  0  0  0  0  0  0  0  0  0  0  0
   26.4067    0.6630   -0.2633 H   0  0  0  0  0  0  0  0  0  0  0  0
   31.3130   -0.7882    1.6767 H   0  0  0  0  0  0  0  0  0  0  0  0
   29.9841   -8.8834    0.6873 H   0  0  0  0  0  0  0  0  0  0  0  0
   28.8806   -8.7343   -0.7222 H   0  0  0  0  0  0  0  0  0  0  0  0
   30.4586   -7.8760   -0.7222 H   0  0  0  0  0  0  0  0  0  0  0  0
   30.5999   -3.4579    1.9914 H   0  0  0  0  0  0  0  0  0  0  0  0
   30.2662   -3.1693    0.2720 H   0  0  0  0  0  0  0  0  0  0  0  0
   27.5076   -3.4369    3.3087 H   0  0  0  0  0  0  0  0  0  0  0  0
   27.0381   -2.8205    1.6823 H   0  0  0  0  0  0  0  0  0  0  0  0
   31.2951   -6.4875   -0.3178 H   0  0  0  0  0  0  0  0  0  0  0  0
  1  2  2  0
  1  5  1  0
  1 17  1  0
  2  3  1  0
  2 14  1  0
  3  4  2  0
  3 15  1  0
  4 16  1  0
  5 13  1  0
  5 16  2  0
  6  7  1  0
  6 14  1  0
  7  8  1  0
  7 10  2  0
  8  9  1  0
  8 12  2  0
 10 11  1  0
 11 12  1  0
 15 21  1  0
 22 18  1  1
 19 22  1  0
 20 22  2  0
 21 22  1  0
  4 23  1  0
  6 24  1  0
  6 25  1  0
  9 26  1  0
 10 27  1  0
 13 28  1  0
 13 29  1  0
 13 30  1  0
 14 31  1  0
 14 32  1  0
 15 33  1  0
 15 34  1  0
 17 35  1  0
M  CHG  3   6   1  18  -1  19  -1
M  END
>  <filename_input>  (20) 
8B8H_OJQ_docked.sdf

>  <pdb_id>  (20) 
8B8H_OJQ

>  <pose_rank>  (20) 
19

>  <num_atoms_heavy>  (20) 
22

>  <num_torsions>  (20) 
6

>  <pose>  (20) 
[29.637317899115757, -5.802086625778588, 0.602877526054525, 5.219277779773996, -0.3756890199299456, -3.4690542893677803, -23.491350655897488, 0.3092767438124041, 19.691425056831456, -10.616992121757677, -0.7286543175285183, -1.7589573933929539]

>  <energy>  (20) 
-448.6284728721071

>  <inter_energy>  (20) 
-508.0576207948837

>  <intra_energy>  (20) 
56.35492663590263

>  <rmsd>  (20) 
2.69939

>  <sdf_rank>  (20) 
0

$$$$

     RDKit          3D

 35 36  0  0  0  0  0  0  0  0999 V2000
   26.8047    0.5586   -0.3807 C   0  0  0  0  0  0  0  0  0  0  0  0
   27.4386   -0.2549    0.5416 C   0  0  0  0  0  0  0  0  0  0  0  0
   26.7089   -1.2702    1.1479 C   0  0  0  0  0  0  0  0  0  0  0  0
   25.3691   -1.4340    0.8175 C   0  0  0  0  0  0  0  0  0  0  0  0
   25.4702    0.3575   -0.6786 C   0  0  0  0  0  0  0  0  0  0  0  0
   29.7563   -0.7694   -0.3360 N   0  0  0  0  0  0  0  0  0  0  0  0
   30.8648   -1.5071    0.1962 C   0  0  0  0  0  0  0  0  0  0  0  0
   31.4082   -2.8182   -0.3250 C   0  0  0  0  0  0  0  0  0  0  0  0
   30.9331   -3.4607   -1.5783 O   0  0  0  0  0  0  0  0  0  0  0  0
   31.5883   -1.3574    1.3527 C   0  0  0  0  0  0  0  0  0  0  0  0
   32.4978   -2.3930    1.4275 O   0  0  0  0  0  0  0  0  0  0  0  0
   32.4141   -3.2835    0.4372 N   0  0  0  0  0  0  0  0  0  0  0  0
   24.7764    1.2441   -1.6792 C   0  0  0  0  0  0  0  0  0  0  0  0
   28.9001   -0.0111    0.8449 C   0  0  0  0  0  0  0  0  0  0  0  0
   27.3202   -2.2053    2.1693 C   0  0  0  0  0  0  0  0  0  0  0  0
   24.7796   -0.6307   -0.0755 N   0  0  0  0  0  0  0  0  0  0  0  0
   27.4783    1.5375   -0.9781 O   0  0  0  0  0  0  0  0  0  0  0  0
   26.6335   -4.8866    4.3867 O   0  0  0  0  0  0  0  0  0  0  0  0
   26.5446   -5.8338    2.1015 O   0  0  0  0  0  0  0  0  0  0  0  0
   28.5690   -4.6262    2.8710 O   0  0  0  0  0  0  0  0  0  0  0  0
   26.4535   -3.3125    2.4033 O   0  0  0  0  0  0  0  0  0  0  0  0
   27.0647   -4.7020    2.9520 P   0  0  2  0  0  0  0  0  0  0  0  0
   24.7858   -2.2343    1.2964 H   0  0  0  0  0  0  0  0  0  0  0  0
   30.1125   -0.0625   -0.9950 H   0  0  0  0  0  0  0  0  0  0  0  0
   29.1278   -1.4346   -0.8086 H   0  0  0  0  0  0  0  0  0  0  0  0
   31.3248   -4.3209   -1.8728 H   0  0  0  0  0  0  0  0  0  0  0  0
   31.4649   -0.5521    2.0918 H   0  0  0  0  0  0  0  0  0  0  0  0
   24.1830    2.0025   -1.1476 H   0  0  0  0  0  0  0  0  0  0  0  0
   25.5272    1.7421   -2.3103 H   0  0  0  0  0  0  0  0  0  0  0  0
   24.1125    0.6351   -2.3103 H   0  0  0  0  0  0  0  0  0  0  0  0
   29.1148    1.0677    0.8366 H   0  0  0  0  0  0  0  0  0  0  0  0
   29.1689   -0.3958    1.8398 H   0  0  0  0  0  0  0  0  0  0  0  0
   28.2862   -2.5731    1.7931 H   0  0  0  0  0  0  0  0  0  0  0  0
   27.4682   -1.6593    3.1127 H   0  0  0  0  0  0  0  0  0  0  0  0
   27.0246    2.1196   -1.6380 H   0  0  0  0  0  0  0  0  0  0  0  0
  1  2  2  0
  1  5  1  0
  1 17  1  0
  2  3  1  0
  2 14  1  0
  3  4  2  0
  3 15  1  0
  4 16  1  0
  5 13  1  0
  5 16  2  0
  6  7  1  0
  6 14  1  0
  7  8  1  0
  7 10  2  0
  8  9  1  0
  8 12  2  0
 10 11  1  0
 11 12  1  0
 15 21  1  0
 22 18  1  1
 19 22  1  0
 20 22  2  0
 21 22  1  0
  4 23  1  0
  6 24  1  0
  6 25  1  0
  9 26  1  0
 10 27  1  0
 13 28  1  0
 13 29  1  0
 13 30  1  0
 14 31  1  0
 14 32  1  0
 15 33  1  0
 15 34  1  0
 17 35  1  0
M  CHG  3   6   1  18  -1  19  -1
M  END
>  <filename_input>  (21) 
8B8H_OJQ_docked.sdf

>  <pdb_id>  (21) 
8B8H_OJQ

>  <pose_rank>  (21) 
20

>  <num_atoms_heavy>  (21) 
22

>  <num_torsions>  (21) 
6

>  <pose>  (21) 
[26.80472253004318, 0.5586446741847307, -0.380749654771219, 1.6530585016876038, 1.0042548879600588, -0.3518671325826688, -2.725521374195434, 19.555112871879114, -11.47964059294598, 2.328415488070977, -0.31870579797547577, 2.796935660173186]

>  <energy>  (21) 
-390.01970157958465

>  <inter_energy>  (21) 
-382.2001548258982

>  <intra_energy>  (21) 
1.1406569431070297

>  <rmsd>  (21) 
5.29725

>  <sdf_rank>  (21) 
0

$$$$

     RDKit          3D

 35 36  0  0  0  0  0  0  0  0999 V2000
   27.0346    1.7019   -0.6525 C   0  0  0  0  0  0  0  0  0  0  0  0
   25.7479    1.2692   -0.3848 C   0  0  0  0  0  0  0  0  0  0  0  0
   25.5758    0.1190    0.3756 C   0  0  0  0  0  0  0  0  0  0  0  0
   26.6947   -0.5638    0.8371 C   0  0  0  0  0  0  0  0  0  0  0  0
   28.1176    0.9905   -0.1715 C   0  0  0  0  0  0  0  0  0  0  0  0
   24.4416    1.6788   -2.5137 N   0  0  0  0  0  0  0  0  0  0  0  0
   23.3335    0.8004   -2.7522 C   0  0  0  0  0  0  0  0  0  0  0  0
   23.0920   -0.0295   -3.9927 C   0  0  0  0  0  0  0  0  0  0  0  0
   24.0744   -0.1485   -5.1018 O   0  0  0  0  0  0  0  0  0  0  0  0
   22.1606    0.6058   -2.0666 C   0  0  0  0  0  0  0  0  0  0  0  0
   21.3946   -0.2987   -2.7739 O   0  0  0  0  0  0  0  0  0  0  0  0
   21.9260   -0.6972   -3.9312 N   0  0  0  0  0  0  0  0  0  0  0  0
   29.5195    1.4569   -0.4646 C   0  0  0  0  0  0  0  0  0  0  0  0
   24.5834    2.0700   -0.9233 C   0  0  0  0  0  0  0  0  0  0  0  0
   24.2056   -0.4277    0.7147 C   0  0  0  0  0  0  0  0  0  0  0  0
   27.9283   -0.1253    0.5607 N   0  0  0  0  0  0  0  0  0  0  0  0
   27.2300    2.8003   -1.3764 O   0  0  0  0  0  0  0  0  0  0  0  0
   24.1960   -0.4980    4.1311 O   0  0  0  0  0  0  0  0  0  0  0  0
   22.1547   -0.4548    2.7315 O   0  0  0  0  0  0  0  0  0  0  0  0
   23.0362   -2.6109    3.5819 O   0  0  0  0  0  0  0  0  0  0  0  0
   24.3060   -1.3935    1.7583 O   0  0  0  0  0  0  0  0  0  0  0  0
   23.3974   -1.2340    3.0829 P   0  0  2  0  0  0  0  0  0  0  0  0
   26.5646   -1.4765    1.4372 H   0  0  0  0  0  0  0  0  0  0  0  0
   25.3076    1.2130   -2.8205 H   0  0  0  0  0  0  0  0  0  0  0  0
   24.2796    2.5476   -3.0427 H   0  0  0  0  0  0  0  0  0  0  0  0
   23.8638   -0.7066   -5.8918 H   0  0  0  0  0  0  0  0  0  0  0  0
   21.8797    1.0871   -1.1182 H   0  0  0  0  0  0  0  0  0  0  0  0
   30.0523    1.6341    0.4813 H   0  0  0  0  0  0  0  0  0  0  0  0
   30.0485    0.6863   -1.0446 H   0  0  0  0  0  0  0  0  0  0  0  0
   29.4815    2.3908   -1.0446 H   0  0  0  0  0  0  0  0  0  0  0  0
   23.6610    1.8083   -0.3841 H   0  0  0  0  0  0  0  0  0  0  0  0
   24.7497    3.1495   -0.7930 H   0  0  0  0  0  0  0  0  0  0  0  0
   23.5565    0.3970    1.0440 H   0  0  0  0  0  0  0  0  0  0  0  0
   23.7791   -0.9073   -0.1787 H   0  0  0  0  0  0  0  0  0  0  0  0
   28.1507    3.1097   -1.5678 H   0  0  0  0  0  0  0  0  0  0  0  0
  1  2  2  0
  1  5  1  0
  1 17  1  0
  2  3  1  0
  2 14  1  0
  3  4  2  0
  3 15  1  0
  4 16  1  0
  5 13  1  0
  5 16  2  0
  6  7  1  0
  6 14  1  0
  7  8  1  0
  7 10  2  0
  8  9  1  0
  8 12  2  0
 10 11  1  0
 11 12  1  0
 15 21  1  0
 22 18  1  1
 19 22  1  0
 20 22  2  0
 21 22  1  0
  4 23  1  0
  6 24  1  0
  6 25  1  0
  9 26  1  0
 10 27  1  0
 13 28  1  0
 13 29  1  0
 13 30  1  0
 14 31  1  0
 14 32  1  0
 15 33  1  0
 15 34  1  0
 17 35  1  0
M  CHG  3   6   1  18  -1  19  -1
M  END
>  <filename_input>  (22) 
8B8H_OJQ_docked.sdf

>  <pdb_id>  (22) 
8B8H_OJQ

>  <pose_rank>  (22) 
21

>  <num_atoms_heavy>  (22) 
22

>  <num_torsions>  (22) 
6

>  <pose>  (22) 
[27.034645091810795, 1.7018723947835261, -0.6524519953741934, -0.4296483517898968, -0.11621312722800214, 1.4815884896488547, 12.652260744718719, -7.674365113001316, 1.973830539456723, -3.924210121143622, -0.8253017456439427, 5.539829061236596]

>  <energy>  (22) 
-471.1332048335265

>  <inter_energy>  (22) 
-477.134538374627

>  <intra_energy>  (22) 
3.6322142670111477

>  <rmsd>  (22) 
6.77163

>  <sdf_rank>  (22) 
0

$$$$

     RDKit          3D

 35 36  0  0  0  0  0  0  0  0999 V2000
   27.2259   -0.9419    0.8259 C   0  0  0  0  0  0  0  0  0  0  0  0
   27.5425   -1.9427    1.7274 C   0  0  0  0  0  0  0  0  0  0  0  0
   26.5095   -2.6673    2.3092 C   0  0  0  0  0  0  0  0  0  0  0  0
   25.1951   -2.3632    1.9762 C   0  0  0  0  0  0  0  0  0  0  0  0
   25.9036   -0.6755    0.5245 C   0  0  0  0  0  0  0  0  0  0  0  0
   29.7159   -2.5959    0.6067 N   0  0  0  0  0  0  0  0  0  0  0  0
   30.2484   -3.9273    0.6161 C   0  0  0  0  0  0  0  0  0  0  0  0
   30.8626   -4.6606   -0.5548 C   0  0  0  0  0  0  0  0  0  0  0  0
   31.1248   -4.0245   -1.8724 O   0  0  0  0  0  0  0  0  0  0  0  0
   30.1968   -4.9231    1.5591 C   0  0  0  0  0  0  0  0  0  0  0  0
   30.7980   -6.0473    1.0301 O   0  0  0  0  0  0  0  0  0  0  0  0
   31.2067   -5.9206   -0.2338 N   0  0  0  0  0  0  0  0  0  0  0  0
   25.5558    0.4160   -0.4533 C   0  0  0  0  0  0  0  0  0  0  0  0
   28.9986   -2.2118    2.0352 C   0  0  0  0  0  0  0  0  0  0  0  0
   26.7633   -3.7772    3.3068 C   0  0  0  0  0  0  0  0  0  0  0  0
   24.9165   -1.3877    1.1038 N   0  0  0  0  0  0  0  0  0  0  0  0
   28.1938   -0.2329    0.2522 O   0  0  0  0  0  0  0  0  0  0  0  0
   25.6094   -7.0061    3.9952 O   0  0  0  0  0  0  0  0  0  0  0  0
   23.9913   -6.1083    2.3510 O   0  0  0  0  0  0  0  0  0  0  0  0
   26.4124   -6.1555    1.8175 O   0  0  0  0  0  0  0  0  0  0  0  0
   25.5629   -4.5082    3.5451 O   0  0  0  0  0  0  0  0  0  0  0  0
   25.3866   -5.9814    2.9095 P   0  0  2  0  0  0  0  0  0  0  0  0
   24.3731   -2.9316    2.4358 H   0  0  0  0  0  0  0  0  0  0  0  0
   30.4832   -1.9318    0.4303 H   0  0  0  0  0  0  0  0  0  0  0  0
   29.0015   -2.5433   -0.1333 H   0  0  0  0  0  0  0  0  0  0  0  0
   31.5296   -4.5528   -2.6053 H   0  0  0  0  0  0  0  0  0  0  0  0
   29.7534   -4.8398    2.5623 H   0  0  0  0  0  0  0  0  0  0  0  0
   25.2666    1.3233    0.0974 H   0  0  0  0  0  0  0  0  0  0  0  0
   26.4291    0.6337   -1.0858 H   0  0  0  0  0  0  0  0  0  0  0  0
   24.7176    0.0883   -1.0858 H   0  0  0  0  0  0  0  0  0  0  0  0
   29.4675   -1.3152    2.4666 H   0  0  0  0  0  0  0  0  0  0  0  0
   29.1061   -3.0272    2.7656 H   0  0  0  0  0  0  0  0  0  0  0  0
   27.5296   -4.4573    2.9066 H   0  0  0  0  0  0  0  0  0  0  0  0
   27.1096   -3.3370    4.2535 H   0  0  0  0  0  0  0  0  0  0  0  0
   27.9671    0.4832   -0.3928 H   0  0  0  0  0  0  0  0  0  0  0  0
  1  2  2  0
  1  5  1  0
  1 17  1  0
  2  3  1  0
  2 14  1  0
  3  4  2  0
  3 15  1  0
  4 16  1  0
  5 13  1  0
  5 16  2  0
  6  7  1  0
  6 14  1  0
  7  8  1  0
  7 10  2  0
  8  9  1  0
  8 12  2  0
 10 11  1  0
 11 12  1  0
 15 21  1  0
 22 18  1  1
 19 22  1  0
 20 22  2  0
 21 22  1  0
  4 23  1  0
  6 24  1  0
  6 25  1  0
  9 26  1  0
 10 27  1  0
 13 28  1  0
 13 29  1  0
 13 30  1  0
 14 31  1  0
 14 32  1  0
 15 33  1  0
 15 34  1  0
 17 35  1  0
M  CHG  3   6   1  18  -1  19  -1
M  END
>  <filename_input>  (23) 
8B8H_OJQ_docked.sdf

>  <pdb_id>  (23) 
8B8H_OJQ

>  <pose_rank>  (23) 
22

>  <num_atoms_heavy>  (23) 
22

>  <num_torsions>  (23) 
6

>  <pose>  (23) 
[27.225894772880835, -0.941902817511673, 0.825897270548021, 1.8490383765850702, 0.7221654633390131, -0.5652602654817418, -2.308822614397879, 19.856885629058745, -10.97599635431866, 2.2976612255275226, -1.1909389587896886, 2.6951227691356103]

>  <energy>  (23) 
-510.3180440605503

>  <inter_energy>  (23) 
-509.14403296347456

>  <intra_energy>  (23) 
15.517929256503994

>  <rmsd>  (23) 
4.92707

>  <sdf_rank>  (23) 
0

$$$$

     RDKit          3D

 35 36  0  0  0  0  0  0  0  0999 V2000
   27.1803    0.3007   -0.0097 C   0  0  0  0  0  0  0  0  0  0  0  0
   27.2734   -0.6431    0.9979 C   0  0  0  0  0  0  0  0  0  0  0  0
   26.1459   -1.3890    1.3190 C   0  0  0  0  0  0  0  0  0  0  0  0
   24.9620   -1.1622    0.6277 C   0  0  0  0  0  0  0  0  0  0  0  0
   25.9815    0.4909   -0.6706 C   0  0  0  0  0  0  0  0  0  0  0  0
   28.9660   -2.4282    1.5932 N   0  0  0  0  0  0  0  0  0  0  0  0
   30.2556   -2.6429    1.0039 C   0  0  0  0  0  0  0  0  0  0  0  0
   30.8178   -3.9610    0.5215 C   0  0  0  0  0  0  0  0  0  0  0  0
   30.0270   -5.2184    0.4703 O   0  0  0  0  0  0  0  0  0  0  0  0
   31.3496   -1.8234    0.8810 C   0  0  0  0  0  0  0  0  0  0  0  0
   32.3706   -2.5532    0.3064 O   0  0  0  0  0  0  0  0  0  0  0  0
   32.0820   -3.8361    0.0794 N   0  0  0  0  0  0  0  0  0  0  0  0
   25.8761    1.5204   -1.7650 C   0  0  0  0  0  0  0  0  0  0  0  0
   28.5992   -0.8293    1.7012 C   0  0  0  0  0  0  0  0  0  0  0  0
   26.1561   -2.4404    2.4080 C   0  0  0  0  0  0  0  0  0  0  0  0
   24.8985   -0.2406   -0.3403 N   0  0  0  0  0  0  0  0  0  0  0  0
   28.2435    1.0284   -0.3397 O   0  0  0  0  0  0  0  0  0  0  0  0
   28.0619   -5.4675    2.3136 O   0  0  0  0  0  0  0  0  0  0  0  0
   26.7581   -4.5318    4.1984 O   0  0  0  0  0  0  0  0  0  0  0  0
   25.6855   -6.0885    2.5937 O   0  0  0  0  0  0  0  0  0  0  0  0
   26.2634   -3.7411    1.8348 O   0  0  0  0  0  0  0  0  0  0  0  0
   26.7028   -4.9875    2.7617 P   0  0  2  0  0  0  0  0  0  0  0  0
   24.0655   -1.7478    0.8795 H   0  0  0  0  0  0  0  0  0  0  0  0
   28.2535   -2.8949    1.0140 H   0  0  0  0  0  0  0  0  0  0  0  0
   28.9825   -2.8169    2.5469 H   0  0  0  0  0  0  0  0  0  0  0  0
   30.4464   -6.0541    0.1451 H   0  0  0  0  0  0  0  0  0  0  0  0
   31.4034   -0.7683    1.1873 H   0  0  0  0  0  0  0  0  0  0  0  0
   25.7737    2.5206   -1.3189 H   0  0  0  0  0  0  0  0  0  0  0  0
   26.7823    1.4876   -2.3877 H   0  0  0  0  0  0  0  0  0  0  0  0
   24.9953    1.3047   -2.3877 H   0  0  0  0  0  0  0  0  0  0  0  0
   29.3776   -0.2271    1.2099 H   0  0  0  0  0  0  0  0  0  0  0  0
   28.5411   -0.5051    2.7507 H   0  0  0  0  0  0  0  0  0  0  0  0
   27.0134   -2.2650    3.0745 H   0  0  0  0  0  0  0  0  0  0  0  0
   25.2178   -2.3756    2.9785 H   0  0  0  0  0  0  0  0  0  0  0  0
   28.1767    1.7036   -1.0606 H   0  0  0  0  0  0  0  0  0  0  0  0
  1  2  2  0
  1  5  1  0
  1 17  1  0
  2  3  1  0
  2 14  1  0
  3  4  2  0
  3 15  1  0
  4 16  1  0
  5 13  1  0
  5 16  2  0
  6  7  1  0
  6 14  1  0
  7  8  1  0
  7 10  2  0
  8  9  1  0
  8 12  2  0
 10 11  1  0
 11 12  1  0
 15 21  1  0
 22 18  1  6
 19 22  1  0
 20 22  2  0
 21 22  1  0
  4 23  1  0
  6 24  1  0
  6 25  1  0
  9 26  1  0
 10 27  1  0
 13 28  1  0
 13 29  1  0
 13 30  1  0
 14 31  1  0
 14 32  1  0
 15 33  1  0
 15 34  1  0
 17 35  1  0
M  CHG  3   6   1  18  -1  19  -1
M  END
>  <filename_input>  (24) 
8B8H_OJQ_docked.sdf

>  <pdb_id>  (24) 
8B8H_OJQ

>  <pose_rank>  (24) 
23

>  <num_atoms_heavy>  (24) 
22

>  <num_torsions>  (24) 
6

>  <pose>  (24) 
[27.18030757235904, 0.3007232578195528, -0.009662231582521918, -4.122915528834493, -1.2613728490344407, 0.6645405862705978, -3.4800244432282383, -1.0354426054864114, 1.8979196273567331, 3.4851914477762476, -0.1894407784687404, -1.0719123090178349]

>  <energy>  (24) 
-404.6973664201587

>  <inter_energy>  (24) 
-438.63826589093037

>  <intra_energy>  (24) 
43.87469129036334

>  <rmsd>  (24) 
5.15909

>  <sdf_rank>  (24) 
0

$$$$

     RDKit          3D

 35 36  0  0  0  0  0  0  0  0999 V2000
   31.1079   -6.2662   -3.1997 C   0  0  0  0  0  0  0  0  0  0  0  0
   31.2490   -5.4654   -2.0803 C   0  0  0  0  0  0  0  0  0  0  0  0
   31.2421   -4.0854   -2.2425 C   0  0  0  0  0  0  0  0  0  0  0  0
   31.1014   -3.5522   -3.5180 C   0  0  0  0  0  0  0  0  0  0  0  0
   30.9698   -5.6909   -4.4488 C   0  0  0  0  0  0  0  0  0  0  0  0
   30.2020   -7.2493   -0.6217 N   0  0  0  0  0  0  0  0  0  0  0  0
   29.2527   -6.9277    0.4039 C   0  0  0  0  0  0  0  0  0  0  0  0
   29.5660   -6.4931    1.8177 C   0  0  0  0  0  0  0  0  0  0  0  0
   30.9422   -6.2030    2.2987 O   0  0  0  0  0  0  0  0  0  0  0  0
   27.8907   -7.0840    0.4668 C   0  0  0  0  0  0  0  0  0  0  0  0
   27.4705   -6.6899    1.7211 O   0  0  0  0  0  0  0  0  0  0  0  0
   28.4509   -6.3306    2.5520 N   0  0  0  0  0  0  0  0  0  0  0  0
   30.8200   -6.5602   -5.6696 C   0  0  0  0  0  0  0  0  0  0  0  0
   31.3962   -6.1244   -0.7271 C   0  0  0  0  0  0  0  0  0  0  0  0
   31.3928   -3.1339   -1.0748 C   0  0  0  0  0  0  0  0  0  0  0  0
   30.9701   -4.3497   -4.5843 N   0  0  0  0  0  0  0  0  0  0  0  0
   31.1093   -7.5903   -3.0748 O   0  0  0  0  0  0  0  0  0  0  0  0
   30.2038    0.4018   -0.4419 O   0  0  0  0  0  0  0  0  0  0  0  0
   28.7057   -1.4480    0.2374 O   0  0  0  0  0  0  0  0  0  0  0  0
   31.0213   -1.3340    1.1169 O   0  0  0  0  0  0  0  0  0  0  0  0
   30.6554   -1.9382   -1.3165 O   0  0  0  0  0  0  0  0  0  0  0  0
   30.1304   -1.0589   -0.0688 P   0  0  2  0  0  0  0  0  0  0  0  0
   31.0980   -2.4605   -3.6528 H   0  0  0  0  0  0  0  0  0  0  0  0
   30.6244   -8.1644   -0.4092 H   0  0  0  0  0  0  0  0  0  0  0  0
   29.7033   -7.2704   -1.5227 H   0  0  0  0  0  0  0  0  0  0  0  0
   31.0898   -5.9215    3.2363 H   0  0  0  0  0  0  0  0  0  0  0  0
   27.2458   -7.4583   -0.3420 H   0  0  0  0  0  0  0  0  0  0  0  0
   30.6409   -7.6003   -5.3595 H   0  0  0  0  0  0  0  0  0  0  0  0
   29.9698   -6.2051   -6.2705 H   0  0  0  0  0  0  0  0  0  0  0  0
   31.7401   -6.5101   -6.2705 H   0  0  0  0  0  0  0  0  0  0  0  0
   32.3811   -6.6074   -0.6450 H   0  0  0  0  0  0  0  0  0  0  0  0
   31.3193   -5.3862    0.0848 H   0  0  0  0  0  0  0  0  0  0  0  0
   31.0140   -3.6163   -0.1617 H   0  0  0  0  0  0  0  0  0  0  0  0
   32.4564   -2.8814   -0.9523 H   0  0  0  0  0  0  0  0  0  0  0  0
   31.0083   -8.1632   -3.8759 H   0  0  0  0  0  0  0  0  0  0  0  0
  1  2  2  0
  1  5  1  0
  1 17  1  0
  2  3  1  0
  2 14  1  0
  3  4  2  0
  3 15  1  0
  4 16  1  0
  5 13  1  0
  5 16  2  0
  6  7  1  0
  6 14  1  0
  7  8  1  0
  7 10  2  0
  8  9  1  0
  8 12  2  0
 10 11  1  0
 11 12  1  0
 15 21  1  0
 22 18  1  6
 19 22  1  0
 20 22  2  0
 21 22  1  0
  4 23  1  0
  6 24  1  0
  6 25  1  0
  9 26  1  0
 10 27  1  0
 13 28  1  0
 13 29  1  0
 13 30  1  0
 14 31  1  0
 14 32  1  0
 15 33  1  0
 15 34  1  0
 17 35  1  0
M  CHG  3   6   1  18  -1  19  -1
M  END
>  <filename_input>  (25) 
8B8H_OJQ_docked.sdf

>  <pdb_id>  (25) 
8B8H_OJQ

>  <pose_rank>  (25) 
24

>  <num_atoms_heavy>  (25) 
22

>  <num_torsions>  (25) 
6

>  <pose>  (25) 
[31.10787883494508, -6.26623720249084, -3.1997331765484787, -1.2556554694530109, 2.4584880024355837, 3.128775149937427, -2.129897265061412, 1.065381613348294, -2.2659429357196457, 2.6694756492516767, -0.3415246643848174, 3.4183033817930126]

>  <energy>  (25) 
-289.46559803019824

>  <inter_energy>  (25) 
-321.86272383668523

>  <intra_energy>  (25) 
31.033542434098937

>  <rmsd>  (25) 
7.07657

>  <sdf_rank>  (25) 
0

$$$$

     RDKit          3D

 35 36  0  0  0  0  0  0  0  0999 V2000
   27.3690   -5.6560    2.0320 C   0  0  0  0  0  0  0  0  0  0  0  0
   26.7690   -4.5560    2.6190 C   0  0  0  0  0  0  0  0  0  0  0  0
   25.4870   -4.6930    3.1370 C   0  0  0  0  0  0  0  0  0  0  0  0
   24.8450   -5.9220    3.0450 C   0  0  0  0  0  0  0  0  0  0  0  0
   26.6920   -6.8590    1.9640 C   0  0  0  0  0  0  0  0  0  0  0  0
   27.5470   -2.6450    1.1530 N   0  0  0  0  0  0  0  0  0  0  0  0
   28.3340   -1.4500    1.0590 C   0  0  0  0  0  0  0  0  0  0  0  0
   29.8340   -1.3700    0.8870 C   0  0  0  0  0  0  0  0  0  0  0  0
   30.6950   -2.5580    0.6490 O   0  0  0  0  0  0  0  0  0  0  0  0
   28.0170   -0.1310    1.2670 C   0  0  0  0  0  0  0  0  0  0  0  0
   29.1700    0.6150    1.1280 O   0  0  0  0  0  0  0  0  0  0  0  0
   30.2740   -0.0990    0.9000 N   0  0  0  0  0  0  0  0  0  0  0  0
   27.3410   -8.0570    1.3220 C   0  0  0  0  0  0  0  0  0  0  0  0
   27.5360   -3.2540    2.6800 C   0  0  0  0  0  0  0  0  0  0  0  0
   24.7540   -3.5430    3.7940 C   0  0  0  0  0  0  0  0  0  0  0  0
   25.4470   -6.9690    2.4690 N   0  0  0  0  0  0  0  0  0  0  0  0
   28.5960   -5.5550    1.5290 O   0  0  0  0  0  0  0  0  0  0  0  0
   22.3840   -1.6450    3.7830 O   0  0  0  0  0  0  0  0  0  0  0  0
   24.4520   -0.4240    4.3830 O   0  0  0  0  0  0  0  0  0  0  0  0
   23.5590   -0.3010    2.0730 O   0  0  0  0  0  0  0  0  0  0  0  0
   24.6090   -2.4630    2.8750 O   0  0  0  0  0  0  0  0  0  0  0  0
   23.7310   -1.1740    3.2910 P   0  0  2  0  0  0  0  0  0  0  0  0
   23.8289   -6.0356    3.4509 H   0  0  0  0  0  0  0  0  0  0  0  0
   26.5794   -2.4292    0.8737 H   0  0  0  0  0  0  0  0  0  0  0  0
   27.9645   -3.3517    0.5308 H   0  0  0  0  0  0  0  0  0  0  0  0
   31.6731   -2.4473    0.5434 H   0  0  0  0  0  0  0  0  0  0  0  0
   27.0176    0.2632    1.5034 H   0  0  0  0  0  0  0  0  0  0  0  0
   27.7096   -8.7373    2.1039 H   0  0  0  0  0  0  0  0  0  0  0  0
   26.6040   -8.5821    0.6966 H   0  0  0  0  0  0  0  0  0  0  0  0
   28.1834   -7.7265    0.6966 H   0  0  0  0  0  0  0  0  0  0  0  0
   27.0385   -2.5519    3.3653 H   0  0  0  0  0  0  0  0  0  0  0  0
   28.5590   -3.4127    3.0517 H   0  0  0  0  0  0  0  0  0  0  0  0
   23.7584   -3.8828    4.1155 H   0  0  0  0  0  0  0  0  0  0  0  0
   25.3322   -3.1989    4.6642 H   0  0  0  0  0  0  0  0  0  0  0  0
   29.0252   -6.3421    1.1090 H   0  0  0  0  0  0  0  0  0  0  0  0
  1  2  2  0
  1  5  1  0
  1 17  1  0
  2  3  1  0
  2 14  1  0
  3  4  2  0
  3 15  1  0
  4 16  1  0
  5 13  1  0
  5 16  2  0
  6  7  1  0
  6 14  1  0
  7  8  1  0
  7 10  2  0
  8  9  1  0
  8 12  2  0
 10 11  1  0
 11 12  1  0
 15 21  1  0
 22 18  1  1
 19 22  1  0
 20 22  2  0
 21 22  1  0
  4 23  1  0
  6 24  1  0
  6 25  1  0
  9 26  1  0
 10 27  1  0
 13 28  1  0
 13 29  1  0
 13 30  1  0
 14 31  1  0
 14 32  1  0
 15 33  1  0
 15 34  1  0
 17 35  1  0
M  CHG  3   6   1  18  -1  19  -1
M  END
>  <filename_input>  (26) 
8B8H_OJQ_docked.sdf

>  <pdb_id>  (26) 
8B8H_OJQ

>  <pose_rank>  (26) 
25

>  <num_atoms_heavy>  (26) 
22

>  <num_torsions>  (26) 
6

>  <pose>  (26) 
[27.369, -5.656, 2.032, 1e-06, 1e-06, 1e-06, 0.0, 0.0, 0.0, 0.0, 0.0, 0.0]

>  <energy>  (26) 
-934.0160319238229

>  <inter_energy>  (26) 
-957.439456653241

>  <intra_energy>  (26) 
14.12991612840883

>  <rmsd>  (26) 
0.0

>  <sdf_rank>  (26) 
0

$$$$
