
     RDKit          3D

 58 62  0  0  0  0  0  0  0  0999 V2000
  -83.1267  -20.1018   85.0865 N   0  0  0  0  0  0  0  0  0  0  0  0
  -78.7923  -21.3945   89.2343 N   0  0  0  0  0  0  0  0  0  0  0  0
  -85.2631  -19.7480   88.0494 C   0  0  0  0  0  0  0  0  0  0  0  0
  -85.8535  -18.5494   88.7195 C   0  0  0  0  0  0  0  0  0  0  0  0
  -87.6388  -17.7958   90.2502 C   0  0  0  0  0  0  0  0  0  0  0  0
  -87.6217  -16.4851   89.7781 C   0  0  0  0  0  0  0  0  0  0  0  0
  -88.4444  -15.5322   90.3637 C   0  0  0  0  0  0  0  0  0  0  0  0
  -89.2803  -15.8805   91.4174 C   0  0  0  0  0  0  0  0  0  0  0  0
  -84.4699  -19.4322   86.9547 C   0  0  0  0  0  0  0  0  0  0  0  0
  -81.8339  -19.6884   85.0021 C   0  0  0  0  0  0  0  0  0  0  0  0
  -78.9245  -20.2822   87.0962 C   0  0  0  0  0  0  0  0  0  0  0  0
  -77.4783  -21.1474   89.2523 C   0  0  0  0  0  0  0  0  0  0  0  0
  -79.4850  -20.9655   88.1712 C   0  0  0  0  0  0  0  0  0  0  0  0
  -79.8655  -19.1001   83.8148 C   0  0  0  0  0  0  0  0  0  0  0  0
  -81.6127  -18.7953   82.4802 C   0  0  0  0  0  0  0  0  0  0  0  0
  -86.7847  -18.7621   89.6689 N   0  0  0  0  0  0  0  0  0  0  0  0
  -83.7768  -22.8668   85.4455 C   0  0  0  0  0  0  0  0  0  0  0  0
  -88.3527  -14.2562   89.8490 O   0  0  0  0  0  0  0  0  0  0  0  0
  -84.2792  -21.7690   86.3535 C   0  0  0  0  0  0  0  0  0  0  0  0
  -89.3386  -17.2005   91.8303 C   0  0  0  0  0  0  0  0  0  0  0  0
  -88.5550  -18.1648   91.2218 C   0  0  0  0  0  0  0  0  0  0  0  0
  -84.0131  -20.4116   86.0761 C   0  0  0  0  0  0  0  0  0  0  0  0
  -79.7316  -19.8381   85.9402 C   0  0  0  0  0  0  0  0  0  0  0  0
  -77.5548  -20.0453   87.1526 C   0  0  0  0  0  0  0  0  0  0  0  0
  -76.8204  -20.4806   88.2399 C   0  0  0  0  0  0  0  0  0  0  0  0
  -85.0060  -22.0731   87.5064 C   0  0  0  0  0  0  0  0  0  0  0  0
  -81.2542  -19.2446   83.7718 C   0  0  0  0  0  0  0  0  0  0  0  0
  -78.1348  -18.2636   82.1763 C   0  0  0  0  0  0  0  0  0  0  0  0
  -85.5106  -21.0828   88.3323 C   0  0  0  0  0  0  0  0  0  0  0  0
  -89.2826  -13.2815   90.3487 C   0  0  0  0  0  0  0  0  0  0  0  0
  -81.0675  -19.9658   86.0624 N   0  0  0  0  0  0  0  0  0  0  0  0
  -79.0797  -19.3846   84.8577 N   0  0  0  0  0  0  0  0  0  0  0  0
  -80.5563  -18.3986   81.7997 N   0  0  0  0  0  0  0  0  0  0  0  0
  -79.4819  -18.5918   82.6210 N   0  0  0  0  0  0  0  0  0  0  0  0
  -85.4592  -17.4243   88.4298 O   0  0  0  0  0  0  0  0  0  0  0  0
  -83.5498  -20.2098   84.1537 H   0  0  0  0  0  0  0  0  0  0  0  0
  -86.9594  -16.2064   88.9452 H   0  0  0  0  0  0  0  0  0  0  0  0
  -89.8900  -15.1145   91.9188 H   0  0  0  0  0  0  0  0  0  0  0  0
  -84.1954  -18.3820   86.7767 H   0  0  0  0  0  0  0  0  0  0  0  0
  -76.8932  -21.4930   90.1172 H   0  0  0  0  0  0  0  0  0  0  0  0
  -80.5662  -21.1663   88.1462 H   0  0  0  0  0  0  0  0  0  0  0  0
  -82.6420  -18.7788   82.0928 H   0  0  0  0  0  0  0  0  0  0  0  0
  -86.8856  -19.7297   90.0073 H   0  0  0  0  0  0  0  0  0  0  0  0
  -83.3954  -23.7001   86.0539 H   0  0  0  0  0  0  0  0  0  0  0  0
  -84.6012  -23.2236   84.8107 H   0  0  0  0  0  0  0  0  0  0  0  0
  -82.9679  -22.4761   84.8107 H   0  0  0  0  0  0  0  0  0  0  0  0
  -90.0145  -17.4855   92.6500 H   0  0  0  0  0  0  0  0  0  0  0  0
  -88.6590  -19.2216   91.5087 H   0  0  0  0  0  0  0  0  0  0  0  0
  -77.0556  -19.5110   86.3309 H   0  0  0  0  0  0  0  0  0  0  0  0
  -75.7369  -20.2994   88.2963 H   0  0  0  0  0  0  0  0  0  0  0  0
  -85.1823  -23.1275   87.7654 H   0  0  0  0  0  0  0  0  0  0  0  0
  -77.4879  -18.1059   83.0519 H   0  0  0  0  0  0  0  0  0  0  0  0
  -77.7368  -19.0910   81.5706 H   0  0  0  0  0  0  0  0  0  0  0  0
  -78.1620  -17.3458   81.5706 H   0  0  0  0  0  0  0  0  0  0  0  0
  -86.1089  -21.3554   89.2142 H   0  0  0  0  0  0  0  0  0  0  0  0
  -89.2709  -13.2938   91.4486 H   0  0  0  0  0  0  0  0  0  0  0  0
  -88.9946  -12.2823   89.9901 H   0  0  0  0  0  0  0  0  0  0  0  0
  -90.2943  -13.5223   89.9901 H   0  0  0  0  0  0  0  0  0  0  0  0
  1 10  1  0
  1 22  1  0
  2 12  2  0
  2 13  1  0
  3  4  1  0
  3  9  2  0
  3 29  1  0
  4 16  1  0
  4 35  2  0
  5  6  2  0
  5 16  1  0
  5 21  1  0
  6  7  1  0
  7  8  2  0
  7 18  1  0
  8 20  1  0
  9 22  1  0
 10 27  2  0
 10 31  1  0
 11 13  2  0
 11 23  1  0
 11 24  1  0
 12 25  1  0
 14 27  1  0
 14 32  2  0
 14 34  1  0
 15 27  1  0
 15 33  2  0
 17 19  1  0
 18 30  1  0
 19 22  2  0
 19 26  1  0
 20 21  2  0
 23 31  2  0
 23 32  1  0
 24 25  2  0
 26 29  2  0
 28 34  1  0
 33 34  1  0
  1 36  1  0
  6 37  1  0
  8 38  1  0
  9 39  1  0
 12 40  1  0
 13 41  1  0
 15 42  1  0
 16 43  1  0
 17 44  1  0
 17 45  1  0
 17 46  1  0
 20 47  1  0
 21 48  1  0
 24 49  1  0
 25 50  1  0
 26 51  1  0
 28 52  1  0
 28 53  1  0
 28 54  1  0
 29 55  1  0
 30 56  1  0
 30 57  1  0
 30 58  1  0
M  END
>  <filename_input>  (1) 
8BOM_QU6_docked.sdf

>  <pdb_id>  (1) 
8BOM_QU6

>  <pose_rank>  (1) 
0

>  <num_atoms_heavy>  (1) 
35

>  <num_torsions>  (1) 
6

>  <pose>  (1) 
[-85.26305577445284, -19.74798739052207, 88.04941208110058, 3.4230137803545166, -2.023631654902827, -4.8237628829801675, -0.011801857057333776, 6.0054299203646435, -6.5863082025387385, 12.679256078547311, -0.05684355938062896, -6.033266323267331]

>  <energy>  (1) 
-2088.3601151294492

>  <inter_energy>  (1) 
-2074.6189748438

>  <intra_energy>  (1) 
24.124059877532076

>  <rmsd>  (1) 
0.305334

>  <sdf_rank>  (1) 
0

$$$$

     RDKit          3D

 58 62  0  0  0  0  0  0  0  0999 V2000
  -82.9881  -20.3028   85.5378 N   0  0  0  0  0  0  0  0  0  0  0  0
  -79.1575  -18.0704   81.1577 N   0  0  0  0  0  0  0  0  0  0  0  0
  -85.3987  -19.7654   88.2522 C   0  0  0  0  0  0  0  0  0  0  0  0
  -85.9528  -18.5202   88.8658 C   0  0  0  0  0  0  0  0  0  0  0  0
  -87.6538  -17.6535   90.4324 C   0  0  0  0  0  0  0  0  0  0  0  0
  -87.7241  -16.4038   89.8205 C   0  0  0  0  0  0  0  0  0  0  0  0
  -88.5141  -15.4080   90.3789 C   0  0  0  0  0  0  0  0  0  0  0  0
  -89.2306  -15.6528   91.5438 C   0  0  0  0  0  0  0  0  0  0  0  0
  -84.4655  -19.5196   87.2543 C   0  0  0  0  0  0  0  0  0  0  0  0
  -81.6286  -20.3343   85.5525 C   0  0  0  0  0  0  0  0  0  0  0  0
  -79.1127  -18.7298   83.4792 C   0  0  0  0  0  0  0  0  0  0  0  0
  -78.0767  -17.3146   81.3786 C   0  0  0  0  0  0  0  0  0  0  0  0
  -79.6526  -18.7554   82.1967 C   0  0  0  0  0  0  0  0  0  0  0  0
  -79.5184  -20.4462   86.6319 C   0  0  0  0  0  0  0  0  0  0  0  0
  -81.0401  -21.3680   87.9591 C   0  0  0  0  0  0  0  0  0  0  0  0
  -86.8316  -18.6617   89.8765 N   0  0  0  0  0  0  0  0  0  0  0  0
  -83.9115  -23.0006   85.7949 C   0  0  0  0  0  0  0  0  0  0  0  0
  -88.5134  -14.1961   89.7211 O   0  0  0  0  0  0  0  0  0  0  0  0
  -84.4135  -21.8636   86.6536 C   0  0  0  0  0  0  0  0  0  0  0  0
  -89.2069  -16.9192   92.1024 C   0  0  0  0  0  0  0  0  0  0  0  0
  -88.4576  -17.9297   91.5266 C   0  0  0  0  0  0  0  0  0  0  0  0
  -84.0015  -20.5346   86.4210 C   0  0  0  0  0  0  0  0  0  0  0  0
  -79.7034  -19.4972   84.5959 C   0  0  0  0  0  0  0  0  0  0  0  0
  -77.9894  -17.9313   83.6679 C   0  0  0  0  0  0  0  0  0  0  0  0
  -77.4627  -17.2146   82.6096 C   0  0  0  0  0  0  0  0  0  0  0  0
  -85.2864  -22.1037   87.7167 C   0  0  0  0  0  0  0  0  0  0  0  0
  -80.8873  -20.7109   86.7167 C   0  0  0  0  0  0  0  0  0  0  0  0
  -77.5434  -20.9070   88.1375 C   0  0  0  0  0  0  0  0  0  0  0  0
  -85.7909  -21.0736   88.4925 C   0  0  0  0  0  0  0  0  0  0  0  0
  -88.8817  -13.0369   90.4863 C   0  0  0  0  0  0  0  0  0  0  0  0
  -81.0251  -19.7467   84.5138 N   0  0  0  0  0  0  0  0  0  0  0  0
  -78.8975  -19.8481   85.6108 N   0  0  0  0  0  0  0  0  0  0  0  0
  -79.8826  -21.5094   88.5727 N   0  0  0  0  0  0  0  0  0  0  0  0
  -78.9486  -20.9371   87.7566 N   0  0  0  0  0  0  0  0  0  0  0  0
  -85.5753  -17.4198   88.4759 O   0  0  0  0  0  0  0  0  0  0  0  0
  -83.3491  -20.0314   84.6121 H   0  0  0  0  0  0  0  0  0  0  0  0
  -87.1563  -16.2070   88.8992 H   0  0  0  0  0  0  0  0  0  0  0  0
  -89.8114  -14.8478   92.0178 H   0  0  0  0  0  0  0  0  0  0  0  0
  -84.0827  -18.4973   87.1182 H   0  0  0  0  0  0  0  0  0  0  0  0
  -77.6566  -16.7444   80.5370 H   0  0  0  0  0  0  0  0  0  0  0  0
  -80.5430  -19.3781   82.0253 H   0  0  0  0  0  0  0  0  0  0  0  0
  -82.0024  -21.7166   88.3621 H   0  0  0  0  0  0  0  0  0  0  0  0
  -86.9137  -19.6024   90.2879 H   0  0  0  0  0  0  0  0  0  0  0  0
  -83.5515  -23.8158   86.4397 H   0  0  0  0  0  0  0  0  0  0  0  0
  -84.7303  -23.3697   85.1598 H   0  0  0  0  0  0  0  0  0  0  0  0
  -83.0871  -22.6441   85.1598 H   0  0  0  0  0  0  0  0  0  0  0  0
  -89.7894  -17.1240   93.0128 H   0  0  0  0  0  0  0  0  0  0  0  0
  -88.4999  -18.9496   91.9364 H   0  0  0  0  0  0  0  0  0  0  0  0
  -77.5197  -17.8699   84.6607 H   0  0  0  0  0  0  0  0  0  0  0  0
  -76.5748  -16.5797   82.7460 H   0  0  0  0  0  0  0  0  0  0  0  0
  -85.5812  -23.1388   87.9440 H   0  0  0  0  0  0  0  0  0  0  0  0
  -77.4609  -20.9052   89.2344 H   0  0  0  0  0  0  0  0  0  0  0  0
  -77.0348  -21.7944   87.7330 H   0  0  0  0  0  0  0  0  0  0  0  0
  -77.0732  -19.9986   87.7330 H   0  0  0  0  0  0  0  0  0  0  0  0
  -86.5041  -21.2934   89.3007 H   0  0  0  0  0  0  0  0  0  0  0  0
  -88.8084  -13.2675   91.5593 H   0  0  0  0  0  0  0  0  0  0  0  0
  -88.2032  -12.2060   90.2426 H   0  0  0  0  0  0  0  0  0  0  0  0
  -89.9152  -12.7499   90.2426 H   0  0  0  0  0  0  0  0  0  0  0  0
  1 10  1  0
  1 22  1  0
  2 12  2  0
  2 13  1  0
  3  4  1  0
  3  9  2  0
  3 29  1  0
  4 16  1  0
  4 35  2  0
  5  6  2  0
  5 16  1  0
  5 21  1  0
  6  7  1  0
  7  8  2  0
  7 18  1  0
  8 20  1  0
  9 22  1  0
 10 27  2  0
 10 31  1  0
 11 13  2  0
 11 23  1  0
 11 24  1  0
 12 25  1  0
 14 27  1  0
 14 32  2  0
 14 34  1  0
 15 27  1  0
 15 33  2  0
 17 19  1  0
 18 30  1  0
 19 22  2  0
 19 26  1  0
 20 21  2  0
 23 31  2  0
 23 32  1  0
 24 25  2  0
 26 29  2  0
 28 34  1  0
 33 34  1  0
  1 36  1  0
  6 37  1  0
  8 38  1  0
  9 39  1  0
 12 40  1  0
 13 41  1  0
 15 42  1  0
 16 43  1  0
 17 44  1  0
 17 45  1  0
 17 46  1  0
 20 47  1  0
 21 48  1  0
 24 49  1  0
 25 50  1  0
 26 51  1  0
 28 52  1  0
 28 53  1  0
 28 54  1  0
 29 55  1  0
 30 56  1  0
 30 57  1  0
 30 58  1  0
M  END
>  <filename_input>  (2) 
8BOM_QU6_docked.sdf

>  <pdb_id>  (2) 
8BOM_QU6

>  <pose_rank>  (2) 
1

>  <num_atoms_heavy>  (2) 
35

>  <num_torsions>  (2) 
6

>  <pose>  (2) 
[-85.39867380920435, -19.76540045799834, 88.25215152110177, 0.6621232373066758, 5.1511620286716, 3.320773785820812, 6.47184480169731, -0.210684449575821, 0.19162642211993403, 0.4766146382323142, -3.3525856215693826, -0.3802068546540745]

>  <energy>  (2) 
-1748.0171890700983

>  <inter_energy>  (2) 
-1736.9255714993124

>  <intra_energy>  (2) 
29.8418242874071

>  <rmsd>  (2) 
3.65806

>  <sdf_rank>  (2) 
0

$$$$

     RDKit          3D

 58 62  0  0  0  0  0  0  0  0999 V2000
  -83.0836  -20.3049   85.2087 N   0  0  0  0  0  0  0  0  0  0  0  0
  -78.9010  -21.2666   89.6051 N   0  0  0  0  0  0  0  0  0  0  0  0
  -85.2787  -19.8891   88.1201 C   0  0  0  0  0  0  0  0  0  0  0  0
  -85.8611  -18.6747   88.7684 C   0  0  0  0  0  0  0  0  0  0  0  0
  -87.5445  -17.8960   90.3987 C   0  0  0  0  0  0  0  0  0  0  0  0
  -87.8227  -17.9668   91.7621 C   0  0  0  0  0  0  0  0  0  0  0  0
  -88.6674  -17.0294   92.3413 C   0  0  0  0  0  0  0  0  0  0  0  0
  -89.2360  -16.0256   91.5672 C   0  0  0  0  0  0  0  0  0  0  0  0
  -84.4554  -19.5965   87.0414 C   0  0  0  0  0  0  0  0  0  0  0  0
  -81.7898  -19.8899   85.1507 C   0  0  0  0  0  0  0  0  0  0  0  0
  -78.9439  -20.4087   87.3494 C   0  0  0  0  0  0  0  0  0  0  0  0
  -77.5661  -21.1934   89.5797 C   0  0  0  0  0  0  0  0  0  0  0  0
  -79.5599  -20.8800   88.5049 C   0  0  0  0  0  0  0  0  0  0  0  0
  -79.7877  -19.3318   84.0060 C   0  0  0  0  0  0  0  0  0  0  0  0
  -81.4943  -19.0743   82.6102 C   0  0  0  0  0  0  0  0  0  0  0  0
  -86.7018  -18.8638   89.8034 N   0  0  0  0  0  0  0  0  0  0  0  0
  -83.7940  -23.0544   85.5719 C   0  0  0  0  0  0  0  0  0  0  0  0
  -88.9044  -17.1820   93.6912 O   0  0  0  0  0  0  0  0  0  0  0  0
  -84.2957  -21.9407   86.4608 C   0  0  0  0  0  0  0  0  0  0  0  0
  -88.8963  -15.9251   90.2290 C   0  0  0  0  0  0  0  0  0  0  0  0
  -88.0200  -16.8285   89.6544 C   0  0  0  0  0  0  0  0  0  0  0  0
  -83.9977  -20.5907   86.1800 C   0  0  0  0  0  0  0  0  0  0  0  0
  -79.7166  -20.0033   86.1563 C   0  0  0  0  0  0  0  0  0  0  0  0
  -77.5541  -20.3483   87.3628 C   0  0  0  0  0  0  0  0  0  0  0  0
  -76.8541  -20.7437   88.4874 C   0  0  0  0  0  0  0  0  0  0  0  0
  -85.0538  -22.2226   87.5990 C   0  0  0  0  0  0  0  0  0  0  0  0
  -81.1741  -19.4823   83.9253 C   0  0  0  0  0  0  0  0  0  0  0  0
  -78.0101  -18.5402   82.3955 C   0  0  0  0  0  0  0  0  0  0  0  0
  -85.5580  -21.2169   88.4065 C   0  0  0  0  0  0  0  0  0  0  0  0
  -88.8440  -15.9982   94.5033 C   0  0  0  0  0  0  0  0  0  0  0  0
  -81.0553  -20.1318   86.2418 N   0  0  0  0  0  0  0  0  0  0  0  0
  -79.0333  -19.5812   85.0805 N   0  0  0  0  0  0  0  0  0  0  0  0
  -80.4187  -18.6952   81.9501 N   0  0  0  0  0  0  0  0  0  0  0  0
  -79.3693  -18.8593   82.8091 N   0  0  0  0  0  0  0  0  0  0  0  0
  -85.5386  -17.5554   88.3831 O   0  0  0  0  0  0  0  0  0  0  0  0
  -83.4791  -20.4394   84.2672 H   0  0  0  0  0  0  0  0  0  0  0  0
  -87.3752  -18.7617   92.3767 H   0  0  0  0  0  0  0  0  0  0  0  0
  -89.9494  -15.3172   92.0135 H   0  0  0  0  0  0  0  0  0  0  0  0
  -84.1569  -18.5530   86.8624 H   0  0  0  0  0  0  0  0  0  0  0  0
  -77.0083  -21.5074   90.4743 H   0  0  0  0  0  0  0  0  0  0  0  0
  -80.6582  -20.9389   88.5153 H   0  0  0  0  0  0  0  0  0  0  0  0
  -82.5114  -19.0734   82.1915 H   0  0  0  0  0  0  0  0  0  0  0  0
  -86.7347  -19.8124   90.2034 H   0  0  0  0  0  0  0  0  0  0  0  0
  -83.4216  -23.8811   86.1948 H   0  0  0  0  0  0  0  0  0  0  0  0
  -84.6165  -23.4155   84.9369 H   0  0  0  0  0  0  0  0  0  0  0  0
  -82.9787  -22.6777   84.9369 H   0  0  0  0  0  0  0  0  0  0  0  0
  -89.3271  -15.1193   89.6166 H   0  0  0  0  0  0  0  0  0  0  0  0
  -87.7016  -16.6996   88.6094 H   0  0  0  0  0  0  0  0  0  0  0  0
  -77.0115  -19.9855   86.4774 H   0  0  0  0  0  0  0  0  0  0  0  0
  -75.7552  -20.7006   88.5105 H   0  0  0  0  0  0  0  0  0  0  0  0
  -85.2560  -23.2716   87.8613 H   0  0  0  0  0  0  0  0  0  0  0  0
  -77.3811  -18.3926   83.2858 H   0  0  0  0  0  0  0  0  0  0  0  0
  -77.6060  -19.3679   81.7942 H   0  0  0  0  0  0  0  0  0  0  0  0
  -78.0164  -17.6192   81.7942 H   0  0  0  0  0  0  0  0  0  0  0  0
  -86.1809  -21.4717   89.2765 H   0  0  0  0  0  0  0  0  0  0  0  0
  -88.8585  -16.2815   95.5661 H   0  0  0  0  0  0  0  0  0  0  0  0
  -87.9167  -15.4491   94.2827 H   0  0  0  0  0  0  0  0  0  0  0  0
  -89.7107  -15.3577   94.2827 H   0  0  0  0  0  0  0  0  0  0  0  0
  1 10  1  0
  1 22  1  0
  2 12  2  0
  2 13  1  0
  3  4  1  0
  3  9  2  0
  3 29  1  0
  4 16  1  0
  4 35  2  0
  5  6  2  0
  5 16  1  0
  5 21  1  0
  6  7  1  0
  7  8  2  0
  7 18  1  0
  8 20  1  0
  9 22  1  0
 10 27  2  0
 10 31  1  0
 11 13  2  0
 11 23  1  0
 11 24  1  0
 12 25  1  0
 14 27  1  0
 14 32  2  0
 14 34  1  0
 15 27  1  0
 15 33  2  0
 17 19  1  0
 18 30  1  0
 19 22  2  0
 19 26  1  0
 20 21  2  0
 23 31  2  0
 23 32  1  0
 24 25  2  0
 26 29  2  0
 28 34  1  0
 33 34  1  0
  1 36  1  0
  6 37  1  0
  8 38  1  0
  9 39  1  0
 12 40  1  0
 13 41  1  0
 15 42  1  0
 16 43  1  0
 17 44  1  0
 17 45  1  0
 17 46  1  0
 20 47  1  0
 21 48  1  0
 24 49  1  0
 25 50  1  0
 26 51  1  0
 28 52  1  0
 28 53  1  0
 28 54  1  0
 29 55  1  0
 30 56  1  0
 30 57  1  0
 30 58  1  0
M  END
>  <filename_input>  (3) 
8BOM_QU6_docked.sdf

>  <pdb_id>  (3) 
8BOM_QU6

>  <pose_rank>  (3) 
2

>  <num_atoms_heavy>  (3) 
35

>  <num_torsions>  (3) 
6

>  <pose>  (3) 
[-85.27873437897048, -19.889147795358472, 88.12005091920247, 5.523517917804039, 2.6865206098748007, -1.1838909191469529, 0.11925850177426217, -2.928587852932011, -0.9854133362289351, 0.08267041587894464, -0.06091322639176037, 0.08184744297020763]

>  <energy>  (3) 
-1765.3932372651416

>  <inter_energy>  (3) 
-1779.320445212836

>  <intra_energy>  (3) 
16.353841530555062

>  <rmsd>  (3) 
1.48778

>  <sdf_rank>  (3) 
0

$$$$

     RDKit          3D

 58 62  0  0  0  0  0  0  0  0999 V2000
  -81.3010  -21.2957   87.7055 N   0  0  0  0  0  0  0  0  0  0  0  0
  -78.1338  -17.8404   82.4071 N   0  0  0  0  0  0  0  0  0  0  0  0
  -84.7431  -20.0436   87.9340 C   0  0  0  0  0  0  0  0  0  0  0  0
  -85.3281  -18.8424   88.6041 C   0  0  0  0  0  0  0  0  0  0  0  0
  -87.2240  -18.0448   89.9708 C   0  0  0  0  0  0  0  0  0  0  0  0
  -87.8040  -18.2377   91.2228 C   0  0  0  0  0  0  0  0  0  0  0  0
  -88.6567  -17.2727   91.7419 C   0  0  0  0  0  0  0  0  0  0  0  0
  -88.9340  -16.1200   91.0176 C   0  0  0  0  0  0  0  0  0  0  0  0
  -83.3740  -20.1695   88.1261 C   0  0  0  0  0  0  0  0  0  0  0  0
  -80.0967  -20.9204   87.1974 C   0  0  0  0  0  0  0  0  0  0  0  0
  -79.1618  -19.0169   84.2470 C   0  0  0  0  0  0  0  0  0  0  0  0
  -79.3413  -17.7153   81.8466 C   0  0  0  0  0  0  0  0  0  0  0  0
  -78.0634  -18.4813   83.5810 C   0  0  0  0  0  0  0  0  0  0  0  0
  -77.8377  -20.2191   87.3857 C   0  0  0  0  0  0  0  0  0  0  0  0
  -78.3940  -21.3123   89.2356 C   0  0  0  0  0  0  0  0  0  0  0  0
  -86.3728  -19.0376   89.4314 N   0  0  0  0  0  0  0  0  0  0  0  0
  -82.4883  -23.0273   85.7591 C   0  0  0  0  0  0  0  0  0  0  0  0
  -89.2020  -17.5500   92.9777 O   0  0  0  0  0  0  0  0  0  0  0  0
  -83.2656  -21.9891   86.5339 C   0  0  0  0  0  0  0  0  0  0  0  0
  -88.2969  -15.9088   89.8069 C   0  0  0  0  0  0  0  0  0  0  0  0
  -87.4112  -16.8450   89.3037 C   0  0  0  0  0  0  0  0  0  0  0  0
  -82.6168  -21.0923   87.4086 C   0  0  0  0  0  0  0  0  0  0  0  0
  -79.0297  -19.7249   85.5378 C   0  0  0  0  0  0  0  0  0  0  0  0
  -80.3999  -18.8663   83.6309 C   0  0  0  0  0  0  0  0  0  0  0  0
  -80.4953  -18.2094   82.4182 C   0  0  0  0  0  0  0  0  0  0  0  0
  -84.6545  -21.9042   86.4182 C   0  0  0  0  0  0  0  0  0  0  0  0
  -78.9155  -20.8588   88.0023 C   0  0  0  0  0  0  0  0  0  0  0  0
  -75.4304  -19.8139   88.0344 C   0  0  0  0  0  0  0  0  0  0  0  0
  -85.3838  -20.9358   87.0875 C   0  0  0  0  0  0  0  0  0  0  0  0
  -89.1448  -18.9139   93.4262 C   0  0  0  0  0  0  0  0  0  0  0  0
  -80.1296  -20.3645   85.9816 N   0  0  0  0  0  0  0  0  0  0  0  0
  -77.8528  -19.6451   86.1789 N   0  0  0  0  0  0  0  0  0  0  0  0
  -77.1203  -20.9992   89.3623 N   0  0  0  0  0  0  0  0  0  0  0  0
  -76.7815  -20.3223   88.2251 N   0  0  0  0  0  0  0  0  0  0  0  0
  -84.8325  -17.7343   88.4258 O   0  0  0  0  0  0  0  0  0  0  0  0
  -81.1899  -21.8933   88.5370 H   0  0  0  0  0  0  0  0  0  0  0  0
  -87.5874  -19.1503   91.7973 H   0  0  0  0  0  0  0  0  0  0  0  0
  -89.6531  -15.3820   91.4027 H   0  0  0  0  0  0  0  0  0  0  0  0
  -82.8746  -19.5241   88.8638 H   0  0  0  0  0  0  0  0  0  0  0  0
  -79.4183  -17.1923   80.8819 H   0  0  0  0  0  0  0  0  0  0  0  0
  -77.0739  -18.5914   84.0488 H   0  0  0  0  0  0  0  0  0  0  0  0
  -78.9771  -21.8570   89.9928 H   0  0  0  0  0  0  0  0  0  0  0  0
  -86.5729  -20.0118   89.6994 H   0  0  0  0  0  0  0  0  0  0  0  0
  -81.9809  -23.7050   86.4613 H   0  0  0  0  0  0  0  0  0  0  0  0
  -83.1781  -23.6046   85.1259 H   0  0  0  0  0  0  0  0  0  0  0  0
  -81.7401  -22.5280   85.1259 H   0  0  0  0  0  0  0  0  0  0  0  0
  -88.4968  -14.9879   89.2395 H   0  0  0  0  0  0  0  0  0  0  0  0
  -86.8571  -16.6373   88.3764 H   0  0  0  0  0  0  0  0  0  0  0  0
  -81.3042  -19.2704   84.1092 H   0  0  0  0  0  0  0  0  0  0  0  0
  -81.4684  -18.0838   81.9210 H   0  0  0  0  0  0  0  0  0  0  0  0
  -85.1835  -22.6257   85.7783 H   0  0  0  0  0  0  0  0  0  0  0  0
  -74.9631  -19.6381   89.0146 H   0  0  0  0  0  0  0  0  0  0  0  0
  -74.8374  -20.5504   87.4723 H   0  0  0  0  0  0  0  0  0  0  0  0
  -75.4700  -18.8692   87.4723 H   0  0  0  0  0  0  0  0  0  0  0  0
  -86.4731  -20.8741   86.9474 H   0  0  0  0  0  0  0  0  0  0  0  0
  -89.1438  -18.9385   94.5260 H   0  0  0  0  0  0  0  0  0  0  0  0
  -90.0208  -19.4612   93.0480 H   0  0  0  0  0  0  0  0  0  0  0  0
  -88.2261  -19.3860   93.0480 H   0  0  0  0  0  0  0  0  0  0  0  0
  1 10  1  0
  1 22  1  0
  2 12  2  0
  2 13  1  0
  3  4  1  0
  3  9  2  0
  3 29  1  0
  4 16  1  0
  4 35  2  0
  5  6  2  0
  5 16  1  0
  5 21  1  0
  6  7  1  0
  7  8  2  0
  7 18  1  0
  8 20  1  0
  9 22  1  0
 10 27  2  0
 10 31  1  0
 11 13  2  0
 11 23  1  0
 11 24  1  0
 12 25  1  0
 14 27  1  0
 14 32  2  0
 14 34  1  0
 15 27  1  0
 15 33  2  0
 17 19  1  0
 18 30  1  0
 19 22  2  0
 19 26  1  0
 20 21  2  0
 23 31  2  0
 23 32  1  0
 24 25  2  0
 26 29  2  0
 28 34  1  0
 33 34  1  0
  1 36  1  0
  6 37  1  0
  8 38  1  0
  9 39  1  0
 12 40  1  0
 13 41  1  0
 15 42  1  0
 16 43  1  0
 17 44  1  0
 17 45  1  0
 17 46  1  0
 20 47  1  0
 21 48  1  0
 24 49  1  0
 25 50  1  0
 26 51  1  0
 28 52  1  0
 28 53  1  0
 28 54  1  0
 29 55  1  0
 30 56  1  0
 30 57  1  0
 30 58  1  0
M  END
>  <filename_input>  (4) 
8BOM_QU6_docked.sdf

>  <pdb_id>  (4) 
8BOM_QU6

>  <pose_rank>  (4) 
3

>  <num_atoms_heavy>  (4) 
35

>  <num_torsions>  (4) 
6

>  <pose>  (4) 
[-84.74309490866051, -20.04359392646508, 87.9339500067795, 0.46015296689738605, -0.981216970575161, -0.5411331543085428, 1.0838537815501494, -2.959228520449647, -3.634996834441854, -2.8140392498223084, -0.6716766264231384, -2.8805891441833023]

>  <energy>  (4) 
-1117.4573170986707

>  <inter_energy>  (4) 
-1139.4862396154567

>  <intra_energy>  (4) 
19.96559202157203

>  <rmsd>  (4) 
4.23569

>  <sdf_rank>  (4) 
0

$$$$

     RDKit          3D

 58 62  0  0  0  0  0  0  0  0999 V2000
  -81.5640  -20.5069   85.9157 N   0  0  0  0  0  0  0  0  0  0  0  0
  -76.1413  -20.2826   88.7995 N   0  0  0  0  0  0  0  0  0  0  0  0
  -82.7115  -21.2146   89.3289 C   0  0  0  0  0  0  0  0  0  0  0  0
  -81.9764  -21.6035   90.5709 C   0  0  0  0  0  0  0  0  0  0  0  0
  -82.2352  -22.0527   92.9853 C   0  0  0  0  0  0  0  0  0  0  0  0
  -83.0706  -21.7465   94.0575 C   0  0  0  0  0  0  0  0  0  0  0  0
  -82.5976  -21.8746   95.3566 C   0  0  0  0  0  0  0  0  0  0  0  0
  -81.2969  -22.3038   95.5894 C   0  0  0  0  0  0  0  0  0  0  0  0
  -81.8865  -21.0758   88.2211 C   0  0  0  0  0  0  0  0  0  0  0  0
  -80.4797  -19.8223   85.4630 C   0  0  0  0  0  0  0  0  0  0  0  0
  -77.1216  -19.3910   86.7820 C   0  0  0  0  0  0  0  0  0  0  0  0
  -75.0440  -19.5587   88.5551 C   0  0  0  0  0  0  0  0  0  0  0  0
  -77.1482  -20.1901   87.9211 C   0  0  0  0  0  0  0  0  0  0  0  0
  -79.0572  -18.9832   83.7592 C   0  0  0  0  0  0  0  0  0  0  0  0
  -81.0776  -19.3037   82.8978 C   0  0  0  0  0  0  0  0  0  0  0  0
  -82.7091  -21.9010   91.6611 N   0  0  0  0  0  0  0  0  0  0  0  0
  -84.2565  -19.5747   85.6356 C   0  0  0  0  0  0  0  0  0  0  0  0
  -83.4821  -21.5342   96.3581 O   0  0  0  0  0  0  0  0  0  0  0  0
  -83.7072  -20.1600   86.9154 C   0  0  0  0  0  0  0  0  0  0  0  0
  -80.5008  -22.6713   94.5182 C   0  0  0  0  0  0  0  0  0  0  0  0
  -80.9801  -22.5891   93.2229 C   0  0  0  0  0  0  0  0  0  0  0  0
  -82.3462  -20.5121   87.0333 C   0  0  0  0  0  0  0  0  0  0  0  0
  -78.2568  -19.3315   85.8372 C   0  0  0  0  0  0  0  0  0  0  0  0
  -75.9622  -18.6541   86.5632 C   0  0  0  0  0  0  0  0  0  0  0  0
  -74.9102  -18.7357   87.4563 C   0  0  0  0  0  0  0  0  0  0  0  0
  -84.5412  -20.3866   88.0121 C   0  0  0  0  0  0  0  0  0  0  0  0
  -80.3311  -19.4518   84.0891 C   0  0  0  0  0  0  0  0  0  0  0  0
  -78.0250  -18.0309   81.6598 C   0  0  0  0  0  0  0  0  0  0  0  0
  -84.0531  -20.8847   89.2084 C   0  0  0  0  0  0  0  0  0  0  0  0
  -84.7868  -21.0879   95.9540 C   0  0  0  0  0  0  0  0  0  0  0  0
  -79.4483  -19.7461   86.3108 N   0  0  0  0  0  0  0  0  0  0  0  0
  -78.0097  -18.9120   84.5860 N   0  0  0  0  0  0  0  0  0  0  0  0
  -80.3453  -18.7825   81.9342 N   0  0  0  0  0  0  0  0  0  0  0  0
  -79.1013  -18.5908   82.4651 N   0  0  0  0  0  0  0  0  0  0  0  0
  -80.7521  -21.6834   90.5633 O   0  0  0  0  0  0  0  0  0  0  0  0
  -81.8789  -21.2097   85.2316 H   0  0  0  0  0  0  0  0  0  0  0  0
  -84.1002  -21.4047   93.8756 H   0  0  0  0  0  0  0  0  0  0  0  0
  -80.9033  -22.3513   96.6155 H   0  0  0  0  0  0  0  0  0  0  0  0
  -80.8435  -21.4196   88.2829 H   0  0  0  0  0  0  0  0  0  0  0  0
  -74.2065  -19.6226   89.2654 H   0  0  0  0  0  0  0  0  0  0  0  0
  -78.0543  -20.7838   88.1124 H   0  0  0  0  0  0  0  0  0  0  0  0
  -82.1347  -19.5875   82.7890 H   0  0  0  0  0  0  0  0  0  0  0  0
  -83.7203  -22.0317   91.5154 H   0  0  0  0  0  0  0  0  0  0  0  0
  -84.9911  -18.7921   85.8760 H   0  0  0  0  0  0  0  0  0  0  0  0
  -83.4343  -19.1384   85.0495 H   0  0  0  0  0  0  0  0  0  0  0  0
  -84.7440  -20.3677   85.0495 H   0  0  0  0  0  0  0  0  0  0  0  0
  -79.4774  -23.0319   94.6984 H   0  0  0  0  0  0  0  0  0  0  0  0
  -80.3663  -22.9488   92.3839 H   0  0  0  0  0  0  0  0  0  0  0  0
  -75.8825  -18.0056   85.6783 H   0  0  0  0  0  0  0  0  0  0  0  0
  -73.9882  -18.1579   87.2945 H   0  0  0  0  0  0  0  0  0  0  0  0
  -85.6147  -20.1635   87.9234 H   0  0  0  0  0  0  0  0  0  0  0  0
  -77.2452  -17.6253   82.3211 H   0  0  0  0  0  0  0  0  0  0  0  0
  -77.5939  -18.8191   81.0250 H   0  0  0  0  0  0  0  0  0  0  0  0
  -78.4229  -17.2255   81.0250 H   0  0  0  0  0  0  0  0  0  0  0  0
  -84.7305  -21.0189   90.0646 H   0  0  0  0  0  0  0  0  0  0  0  0
  -85.3957  -20.8796   96.8460 H   0  0  0  0  0  0  0  0  0  0  0  0
  -84.6910  -20.1714   95.3532 H   0  0  0  0  0  0  0  0  0  0  0  0
  -85.2724  -21.8710   95.3532 H   0  0  0  0  0  0  0  0  0  0  0  0
  1 10  1  0
  1 22  1  0
  2 12  2  0
  2 13  1  0
  3  4  1  0
  3  9  2  0
  3 29  1  0
  4 16  1  0
  4 35  2  0
  5  6  2  0
  5 16  1  0
  5 21  1  0
  6  7  1  0
  7  8  2  0
  7 18  1  0
  8 20  1  0
  9 22  1  0
 10 27  2  0
 10 31  1  0
 11 13  2  0
 11 23  1  0
 11 24  1  0
 12 25  1  0
 14 27  1  0
 14 32  2  0
 14 34  1  0
 15 27  1  0
 15 33  2  0
 17 19  1  0
 18 30  1  0
 19 22  2  0
 19 26  1  0
 20 21  2  0
 23 31  2  0
 23 32  1  0
 24 25  2  0
 26 29  2  0
 28 34  1  0
 33 34  1  0
  1 36  1  0
  6 37  1  0
  8 38  1  0
  9 39  1  0
 12 40  1  0
 13 41  1  0
 15 42  1  0
 16 43  1  0
 17 44  1  0
 17 45  1  0
 17 46  1  0
 20 47  1  0
 21 48  1  0
 24 49  1  0
 25 50  1  0
 26 51  1  0
 28 52  1  0
 28 53  1  0
 28 54  1  0
 29 55  1  0
 30 56  1  0
 30 57  1  0
 30 58  1  0
M  END
>  <filename_input>  (5) 
8BOM_QU6_docked.sdf

>  <pdb_id>  (5) 
8BOM_QU6

>  <pose_rank>  (5) 
4

>  <num_atoms_heavy>  (5) 
35

>  <num_torsions>  (5) 
6

>  <pose>  (5) 
[-82.71152663684632, -21.21456463549317, 89.32890645409672, 1.01927222804493, 0.30541083354809806, -1.5129522323577236, 0.27022820232350686, 2.2684810619158715, 2.9400467890200437, 3.928351673559314, 0.42056316830823653, 0.43663715613383336]

>  <energy>  (5) 
-871.3344965127063

>  <inter_energy>  (5) 
-894.4990993776543

>  <intra_energy>  (5) 
21.56096260482831

>  <rmsd>  (5) 
5.15265

>  <sdf_rank>  (5) 
0

$$$$

     RDKit          3D

 58 62  0  0  0  0  0  0  0  0999 V2000
  -81.8636  -20.5296   85.5570 N   0  0  0  0  0  0  0  0  0  0  0  0
  -75.9213  -18.3305   88.1909 N   0  0  0  0  0  0  0  0  0  0  0  0
  -82.0430  -21.7334   89.0191 C   0  0  0  0  0  0  0  0  0  0  0  0
  -81.2842  -21.3555   90.2501 C   0  0  0  0  0  0  0  0  0  0  0  0
  -79.0426  -21.3381   91.2862 C   0  0  0  0  0  0  0  0  0  0  0  0
  -77.8621  -20.6086   91.1625 C   0  0  0  0  0  0  0  0  0  0  0  0
  -76.9718  -20.5551   92.2266 C   0  0  0  0  0  0  0  0  0  0  0  0
  -77.2529  -21.2268   93.4098 C   0  0  0  0  0  0  0  0  0  0  0  0
  -81.6306  -21.0469   87.8852 C   0  0  0  0  0  0  0  0  0  0  0  0
  -80.7594  -19.8246   85.1923 C   0  0  0  0  0  0  0  0  0  0  0  0
  -77.4845  -19.4292   86.7160 C   0  0  0  0  0  0  0  0  0  0  0  0
  -75.4980  -19.5327   88.5953 C   0  0  0  0  0  0  0  0  0  0  0  0
  -76.8950  -18.2977   87.2718 C   0  0  0  0  0  0  0  0  0  0  0  0
  -79.2470  -18.9180   83.6044 C   0  0  0  0  0  0  0  0  0  0  0  0
  -81.2131  -19.2144   82.6177 C   0  0  0  0  0  0  0  0  0  0  0  0
  -79.9397  -21.4116   90.1949 N   0  0  0  0  0  0  0  0  0  0  0  0
  -84.2751  -22.0556   85.3271 C   0  0  0  0  0  0  0  0  0  0  0  0
  -75.8201  -19.8269   92.0149 O   0  0  0  0  0  0  0  0  0  0  0  0
  -83.4796  -21.9437   86.6066 C   0  0  0  0  0  0  0  0  0  0  0  0
  -78.4607  -21.8898   93.5440 C   0  0  0  0  0  0  0  0  0  0  0  0
  -79.3731  -21.9101   92.5041 C   0  0  0  0  0  0  0  0  0  0  0  0
  -82.3535  -21.0988   86.6958 C   0  0  0  0  0  0  0  0  0  0  0  0
  -78.5644  -19.3393   85.7106 C   0  0  0  0  0  0  0  0  0  0  0  0
  -77.0168  -20.6606   87.1634 C   0  0  0  0  0  0  0  0  0  0  0  0
  -76.0134  -20.7176   88.1125 C   0  0  0  0  0  0  0  0  0  0  0  0
  -83.8292  -22.6927   87.7320 C   0  0  0  0  0  0  0  0  0  0  0  0
  -80.5349  -19.4033   83.8436 C   0  0  0  0  0  0  0  0  0  0  0  0
  -78.1025  -17.8852   81.6035 C   0  0  0  0  0  0  0  0  0  0  0  0
  -83.1397  -22.5772   88.9273 C   0  0  0  0  0  0  0  0  0  0  0  0
  -75.6474  -18.6347   92.7982 C   0  0  0  0  0  0  0  0  0  0  0  0
  -79.7784  -19.7756   86.0999 N   0  0  0  0  0  0  0  0  0  0  0  0
  -78.2488  -18.8732   84.4918 N   0  0  0  0  0  0  0  0  0  0  0  0
  -80.4302  -18.6553   81.7173 N   0  0  0  0  0  0  0  0  0  0  0  0
  -79.2196  -18.4784   82.3250 N   0  0  0  0  0  0  0  0  0  0  0  0
  -81.8827  -20.9706   91.2496 O   0  0  0  0  0  0  0  0  0  0  0  0
  -82.5004  -20.6719   84.7601 H   0  0  0  0  0  0  0  0  0  0  0  0
  -77.6365  -20.0774   90.2261 H   0  0  0  0  0  0  0  0  0  0  0  0
  -76.5225  -21.2318   94.2323 H   0  0  0  0  0  0  0  0  0  0  0  0
  -80.7097  -20.4468   87.9272 H   0  0  0  0  0  0  0  0  0  0  0  0
  -74.6993  -19.5791   89.3502 H   0  0  0  0  0  0  0  0  0  0  0  0
  -77.2515  -17.3132   86.9346 H   0  0  0  0  0  0  0  0  0  0  0  0
  -82.2606  -19.4981   82.4384 H   0  0  0  0  0  0  0  0  0  0  0  0
  -79.5207  -21.5192   89.2601 H   0  0  0  0  0  0  0  0  0  0  0  0
  -85.3379  -22.2050   85.5680 H   0  0  0  0  0  0  0  0  0  0  0  0
  -84.1583  -21.1322   84.7409 H   0  0  0  0  0  0  0  0  0  0  0  0
  -83.9082  -22.9110   84.7409 H   0  0  0  0  0  0  0  0  0  0  0  0
  -78.6974  -22.4054   94.4864 H   0  0  0  0  0  0  0  0  0  0  0  0
  -80.3583  -22.3790   92.6439 H   0  0  0  0  0  0  0  0  0  0  0  0
  -77.4459  -21.5901   86.7613 H   0  0  0  0  0  0  0  0  0  0  0  0
  -75.6349  -21.6850   88.4743 H   0  0  0  0  0  0  0  0  0  0  0  0
  -84.6749  -23.3931   87.6674 H   0  0  0  0  0  0  0  0  0  0  0  0
  -77.3674  -17.4949   82.3227 H   0  0  0  0  0  0  0  0  0  0  0  0
  -77.6269  -18.6496   80.9714 H   0  0  0  0  0  0  0  0  0  0  0  0
  -78.4694  -17.0631   80.9714 H   0  0  0  0  0  0  0  0  0  0  0  0
  -83.4624  -23.1558   89.8055 H   0  0  0  0  0  0  0  0  0  0  0  0
  -75.6844  -18.8900   93.8675 H   0  0  0  0  0  0  0  0  0  0  0  0
  -74.6739  -18.1796   92.5633 H   0  0  0  0  0  0  0  0  0  0  0  0
  -76.4516  -17.9220   92.5633 H   0  0  0  0  0  0  0  0  0  0  0  0
  1 10  1  0
  1 22  1  0
  2 12  2  0
  2 13  1  0
  3  4  1  0
  3  9  2  0
  3 29  1  0
  4 16  1  0
  4 35  2  0
  5  6  2  0
  5 16  1  0
  5 21  1  0
  6  7  1  0
  7  8  2  0
  7 18  1  0
  8 20  1  0
  9 22  1  0
 10 27  2  0
 10 31  1  0
 11 13  2  0
 11 23  1  0
 11 24  1  0
 12 25  1  0
 14 27  1  0
 14 32  2  0
 14 34  1  0
 15 27  1  0
 15 33  2  0
 17 19  1  0
 18 30  1  0
 19 22  2  0
 19 26  1  0
 20 21  2  0
 23 31  2  0
 23 32  1  0
 24 25  2  0
 26 29  2  0
 28 34  1  0
 33 34  1  0
  1 36  1  0
  6 37  1  0
  8 38  1  0
  9 39  1  0
 12 40  1  0
 13 41  1  0
 15 42  1  0
 16 43  1  0
 17 44  1  0
 17 45  1  0
 17 46  1  0
 20 47  1  0
 21 48  1  0
 24 49  1  0
 25 50  1  0
 26 51  1  0
 28 52  1  0
 28 53  1  0
 28 54  1  0
 29 55  1  0
 30 56  1  0
 30 57  1  0
 30 58  1  0
M  END
>  <filename_input>  (6) 
8BOM_QU6_docked.sdf

>  <pdb_id>  (6) 
8BOM_QU6

>  <pose_rank>  (6) 
5

>  <num_atoms_heavy>  (6) 
35

>  <num_torsions>  (6) 
6

>  <pose>  (6) 
[-82.04304608501278, -21.733447647884468, 89.01909696949127, 0.687314449050792, 0.63842020307772, -0.7079302930872156, 2.370424756033784, 3.4909483951523708, 4.931898339492906, -1.0667760187737703, -0.27433450446566693, 4.410809038580945]

>  <energy>  (6) 
-929.1437685536246

>  <inter_energy>  (6) 
-966.3208189644627

>  <intra_energy>  (6) 
35.99405565990418

>  <rmsd>  (6) 
6.20361

>  <sdf_rank>  (6) 
0

$$$$

     RDKit          3D

 58 62  0  0  0  0  0  0  0  0999 V2000
  -83.5547  -19.3993   85.2344 N   0  0  0  0  0  0  0  0  0  0  0  0
  -80.6650  -24.8333   85.8196 N   0  0  0  0  0  0  0  0  0  0  0  0
  -85.5355  -19.4442   88.3234 C   0  0  0  0  0  0  0  0  0  0  0  0
  -86.0345  -18.3472   89.2078 C   0  0  0  0  0  0  0  0  0  0  0  0
  -87.3936  -17.8614   91.2115 C   0  0  0  0  0  0  0  0  0  0  0  0
  -87.6006  -18.2329   92.5383 C   0  0  0  0  0  0  0  0  0  0  0  0
  -88.3575  -17.4192   93.3705 C   0  0  0  0  0  0  0  0  0  0  0  0
  -88.9093  -16.2403   92.8847 C   0  0  0  0  0  0  0  0  0  0  0  0
  -84.7775  -18.9877   87.2538 C   0  0  0  0  0  0  0  0  0  0  0  0
  -82.2803  -19.6658   84.8416 C   0  0  0  0  0  0  0  0  0  0  0  0
  -80.3661  -22.7477   84.6419 C   0  0  0  0  0  0  0  0  0  0  0  0
  -79.7651  -25.3927   85.0040 C   0  0  0  0  0  0  0  0  0  0  0  0
  -80.9486  -23.5384   85.6279 C   0  0  0  0  0  0  0  0  0  0  0  0
  -80.3574  -19.3223   83.4944 C   0  0  0  0  0  0  0  0  0  0  0  0
  -81.5382  -17.4432   83.5316 C   0  0  0  0  0  0  0  0  0  0  0  0
  -86.6412  -18.7009   90.3570 N   0  0  0  0  0  0  0  0  0  0  0  0
  -84.3258  -22.1559   85.1771 C   0  0  0  0  0  0  0  0  0  0  0  0
  -88.5288  -17.8690   94.6627 O   0  0  0  0  0  0  0  0  0  0  0  0
  -84.7313  -21.2009   86.2751 C   0  0  0  0  0  0  0  0  0  0  0  0
  -88.6380  -15.8483   91.5851 C   0  0  0  0  0  0  0  0  0  0  0  0
  -87.8473  -16.6315   90.7631 C   0  0  0  0  0  0  0  0  0  0  0  0
  -84.4102  -19.8288   86.2062 C   0  0  0  0  0  0  0  0  0  0  0  0
  -80.7212  -21.3238   84.4648 C   0  0  0  0  0  0  0  0  0  0  0  0
  -79.4355  -23.3669   83.8138 C   0  0  0  0  0  0  0  0  0  0  0  0
  -79.1288  -24.7029   83.9932 C   0  0  0  0  0  0  0  0  0  0  0  0
  -85.4199  -21.6582   87.4005 C   0  0  0  0  0  0  0  0  0  0  0  0
  -81.5412  -18.7778   83.9977 C   0  0  0  0  0  0  0  0  0  0  0  0
  -78.4661  -18.4157   82.0870 C   0  0  0  0  0  0  0  0  0  0  0  0
  -85.8368  -20.7956   88.4003 C   0  0  0  0  0  0  0  0  0  0  0  0
  -87.9611  -17.0700   95.7134 C   0  0  0  0  0  0  0  0  0  0  0  0
  -81.8542  -20.9131   85.0675 N   0  0  0  0  0  0  0  0  0  0  0  0
  -79.9202  -20.5690   83.6958 N   0  0  0  0  0  0  0  0  0  0  0  0
  -80.4562  -17.1838   82.8257 N   0  0  0  0  0  0  0  0  0  0  0  0
  -79.7337  -18.3428   82.7999 N   0  0  0  0  0  0  0  0  0  0  0  0
  -85.8499  -17.1742   88.8991 O   0  0  0  0  0  0  0  0  0  0  0  0
  -83.9906  -18.6809   84.6388 H   0  0  0  0  0  0  0  0  0  0  0  0
  -87.1662  -19.1667   92.9247 H   0  0  0  0  0  0  0  0  0  0  0  0
  -89.5558  -15.6241   93.5269 H   0  0  0  0  0  0  0  0  0  0  0  0
  -84.4589  -17.9350   87.2330 H   0  0  0  0  0  0  0  0  0  0  0  0
  -79.5201  -26.4556   85.1463 H   0  0  0  0  0  0  0  0  0  0  0  0
  -81.6895  -23.0699   86.2924 H   0  0  0  0  0  0  0  0  0  0  0  0
  -82.3371  -16.7142   83.7326 H   0  0  0  0  0  0  0  0  0  0  0  0
  -86.5476  -19.6858   90.6436 H   0  0  0  0  0  0  0  0  0  0  0  0
  -83.9327  -23.0815   85.6229 H   0  0  0  0  0  0  0  0  0  0  0  0
  -85.2013  -22.3918   84.5545 H   0  0  0  0  0  0  0  0  0  0  0  0
  -83.5479  -21.6898   84.5545 H   0  0  0  0  0  0  0  0  0  0  0  0
  -89.0550  -14.9051   91.2022 H   0  0  0  0  0  0  0  0  0  0  0  0
  -87.5796  -16.2786   89.7562 H   0  0  0  0  0  0  0  0  0  0  0  0
  -78.9430  -22.7928   83.0152 H   0  0  0  0  0  0  0  0  0  0  0  0
  -78.3947  -25.2040   83.3450 H   0  0  0  0  0  0  0  0  0  0  0  0
  -85.6371  -22.7323   87.4953 H   0  0  0  0  0  0  0  0  0  0  0  0
  -77.6400  -18.4632   82.8118 H   0  0  0  0  0  0  0  0  0  0  0  0
  -78.4519  -19.3162   81.4554 H   0  0  0  0  0  0  0  0  0  0  0  0
  -78.3488  -17.5228   81.4554 H   0  0  0  0  0  0  0  0  0  0  0  0
  -86.4078  -21.1830   89.2570 H   0  0  0  0  0  0  0  0  0  0  0  0
  -88.2555  -17.4844   96.6889 H   0  0  0  0  0  0  0  0  0  0  0  0
  -86.8644  -17.0773   95.6278 H   0  0  0  0  0  0  0  0  0  0  0  0
  -88.3287  -16.0368   95.6278 H   0  0  0  0  0  0  0  0  0  0  0  0
  1 10  1  0
  1 22  1  0
  2 12  2  0
  2 13  1  0
  3  4  1  0
  3  9  2  0
  3 29  1  0
  4 16  1  0
  4 35  2  0
  5  6  2  0
  5 16  1  0
  5 21  1  0
  6  7  1  0
  7  8  2  0
  7 18  1  0
  8 20  1  0
  9 22  1  0
 10 27  2  0
 10 31  1  0
 11 13  2  0
 11 23  1  0
 11 24  1  0
 12 25  1  0
 14 27  1  0
 14 32  2  0
 14 34  1  0
 15 27  1  0
 15 33  2  0
 17 19  1  0
 18 30  1  0
 19 22  2  0
 19 26  1  0
 20 21  2  0
 23 31  2  0
 23 32  1  0
 24 25  2  0
 26 29  2  0
 28 34  1  0
 33 34  1  0
  1 36  1  0
  6 37  1  0
  8 38  1  0
  9 39  1  0
 12 40  1  0
 13 41  1  0
 15 42  1  0
 16 43  1  0
 17 44  1  0
 17 45  1  0
 17 46  1  0
 20 47  1  0
 21 48  1  0
 24 49  1  0
 25 50  1  0
 26 51  1  0
 28 52  1  0
 28 53  1  0
 28 54  1  0
 29 55  1  0
 30 56  1  0
 30 57  1  0
 30 58  1  0
M  END
>  <filename_input>  (7) 
8BOM_QU6_docked.sdf

>  <pdb_id>  (7) 
8BOM_QU6

>  <pose_rank>  (7) 
6

>  <num_atoms_heavy>  (7) 
35

>  <num_torsions>  (7) 
6

>  <pose>  (7) 
[-85.53554024321012, -19.444165554096426, 88.32343393927626, 5.9445761695611745, 2.3351938217143506, -0.8404348409939154, 0.2850650773825055, -3.141970878150188, -1.3210824119219666, 0.8932490526529153, 0.07287468399610225, -0.18078718463952348]

>  <energy>  (7) 
-930.8604923592734

>  <inter_energy>  (7) 
-1008.6364124361992

>  <intra_energy>  (7) 
65.45499267221172

>  <rmsd>  (7) 
3.04462

>  <sdf_rank>  (7) 
0

$$$$

     RDKit          3D

 58 62  0  0  0  0  0  0  0  0999 V2000
  -83.1030  -19.6705   87.0216 N   0  0  0  0  0  0  0  0  0  0  0  0
  -77.5580  -17.8167   83.2478 N   0  0  0  0  0  0  0  0  0  0  0  0
  -84.8073  -19.8025   90.2691 C   0  0  0  0  0  0  0  0  0  0  0  0
  -86.1249  -19.2677   90.7297 C   0  0  0  0  0  0  0  0  0  0  0  0
  -87.6611  -17.3404   90.5740 C   0  0  0  0  0  0  0  0  0  0  0  0
  -87.9273  -16.1356   89.9270 C   0  0  0  0  0  0  0  0  0  0  0  0
  -88.9725  -15.3347   90.3672 C   0  0  0  0  0  0  0  0  0  0  0  0
  -89.7497  -15.7290   91.4492 C   0  0  0  0  0  0  0  0  0  0  0  0
  -84.5201  -19.4951   88.9461 C   0  0  0  0  0  0  0  0  0  0  0  0
  -82.2928  -20.1055   86.0198 C   0  0  0  0  0  0  0  0  0  0  0  0
  -79.1100  -18.9071   84.7406 C   0  0  0  0  0  0  0  0  0  0  0  0
  -76.9625  -17.2663   84.3110 C   0  0  0  0  0  0  0  0  0  0  0  0
  -78.6083  -18.6160   83.4755 C   0  0  0  0  0  0  0  0  0  0  0  0
  -81.2920  -21.7854   84.6757 C   0  0  0  0  0  0  0  0  0  0  0  0
  -83.1944  -22.5797   85.4983 C   0  0  0  0  0  0  0  0  0  0  0  0
  -86.5825  -18.1464   90.1403 N   0  0  0  0  0  0  0  0  0  0  0  0
  -81.3887  -21.5755   88.2979 C   0  0  0  0  0  0  0  0  0  0  0  0
  -89.1564  -14.1514   89.6835 O   0  0  0  0  0  0  0  0  0  0  0  0
  -82.5787  -20.9400   88.9778 C   0  0  0  0  0  0  0  0  0  0  0  0
  -89.5189  -16.9602   92.0385 C   0  0  0  0  0  0  0  0  0  0  0  0
  -88.5080  -17.7842   91.5767 C   0  0  0  0  0  0  0  0  0  0  0  0
  -83.4513  -20.0834   88.2743 C   0  0  0  0  0  0  0  0  0  0  0  0
  -80.2798  -19.7889   84.9383 C   0  0  0  0  0  0  0  0  0  0  0  0
  -78.4632  -18.3146   85.8203 C   0  0  0  0  0  0  0  0  0  0  0  0
  -77.3780  -17.4850   85.6080 C   0  0  0  0  0  0  0  0  0  0  0  0
  -82.8342  -21.1700   90.3311 C   0  0  0  0  0  0  0  0  0  0  0  0
  -82.3537  -21.4433   85.5165 C   0  0  0  0  0  0  0  0  0  0  0  0
  -80.7249  -23.8302   83.3055 C   0  0  0  0  0  0  0  0  0  0  0  0
  -83.9405  -20.6308   90.9659 C   0  0  0  0  0  0  0  0  0  0  0  0
  -89.8415  -13.0956   90.3768 C   0  0  0  0  0  0  0  0  0  0  0  0
  -81.2677  -19.3025   85.7150 N   0  0  0  0  0  0  0  0  0  0  0  0
  -80.2516  -21.0046   84.3693 N   0  0  0  0  0  0  0  0  0  0  0  0
  -82.7108  -23.5220   84.7144 N   0  0  0  0  0  0  0  0  0  0  0  0
  -81.5378  -23.0331   84.2134 N   0  0  0  0  0  0  0  0  0  0  0  0
  -86.7689  -19.8674   91.5846 O   0  0  0  0  0  0  0  0  0  0  0  0
  -83.5819  -18.7951   86.7663 H   0  0  0  0  0  0  0  0  0  0  0  0
  -87.3122  -15.8204   89.0712 H   0  0  0  0  0  0  0  0  0  0  0  0
  -90.5411  -15.0689   91.8340 H   0  0  0  0  0  0  0  0  0  0  0  0
  -85.1526  -18.7685   88.4151 H   0  0  0  0  0  0  0  0  0  0  0  0
  -76.0986  -16.6064   84.1431 H   0  0  0  0  0  0  0  0  0  0  0  0
  -79.1063  -19.0716   82.6069 H   0  0  0  0  0  0  0  0  0  0  0  0
  -84.1326  -22.6662   86.0661 H   0  0  0  0  0  0  0  0  0  0  0  0
  -86.0961  -17.8441   89.2842 H   0  0  0  0  0  0  0  0  0  0  0  0
  -80.6881  -21.9496   89.0590 H   0  0  0  0  0  0  0  0  0  0  0  0
  -81.7288  -22.4120   87.6698 H   0  0  0  0  0  0  0  0  0  0  0  0
  -80.8826  -20.8275   87.6698 H   0  0  0  0  0  0  0  0  0  0  0  0
  -90.1452  -17.2864   92.8819 H   0  0  0  0  0  0  0  0  0  0  0  0
  -88.3771  -18.7891   92.0045 H   0  0  0  0  0  0  0  0  0  0  0  0
  -78.8159  -18.5064   86.8444 H   0  0  0  0  0  0  0  0  0  0  0  0
  -76.8581  -17.0106   86.4533 H   0  0  0  0  0  0  0  0  0  0  0  0
  -82.1382  -21.7963   90.9084 H   0  0  0  0  0  0  0  0  0  0  0  0
  -80.0585  -24.4835   83.8878 H   0  0  0  0  0  0  0  0  0  0  0  0
  -81.3798  -24.4458   82.6715 H   0  0  0  0  0  0  0  0  0  0  0  0
  -80.1222  -23.1632   82.6715 H   0  0  0  0  0  0  0  0  0  0  0  0
  -84.1320  -20.8598   92.0246 H   0  0  0  0  0  0  0  0  0  0  0  0
  -89.7439  -13.2460   91.4621 H   0  0  0  0  0  0  0  0  0  0  0  0
  -89.3992  -12.1274   90.0995 H   0  0  0  0  0  0  0  0  0  0  0  0
  -90.9059  -13.1053   90.0995 H   0  0  0  0  0  0  0  0  0  0  0  0
  1 10  1  0
  1 22  1  0
  2 12  2  0
  2 13  1  0
  3  4  1  0
  3  9  2  0
  3 29  1  0
  4 16  1  0
  4 35  2  0
  5  6  2  0
  5 16  1  0
  5 21  1  0
  6  7  1  0
  7  8  2  0
  7 18  1  0
  8 20  1  0
  9 22  1  0
 10 27  2  0
 10 31  1  0
 11 13  2  0
 11 23  1  0
 11 24  1  0
 12 25  1  0
 14 27  1  0
 14 32  2  0
 14 34  1  0
 15 27  1  0
 15 33  2  0
 17 19  1  0
 18 30  1  0
 19 22  2  0
 19 26  1  0
 20 21  2  0
 23 31  2  0
 23 32  1  0
 24 25  2  0
 26 29  2  0
 28 34  1  0
 33 34  1  0
  1 36  1  0
  6 37  1  0
  8 38  1  0
  9 39  1  0
 12 40  1  0
 13 41  1  0
 15 42  1  0
 16 43  1  0
 17 44  1  0
 17 45  1  0
 17 46  1  0
 20 47  1  0
 21 48  1  0
 24 49  1  0
 25 50  1  0
 26 51  1  0
 28 52  1  0
 28 53  1  0
 28 54  1  0
 29 55  1  0
 30 56  1  0
 30 57  1  0
 30 58  1  0
M  END
>  <filename_input>  (8) 
8BOM_QU6_docked.sdf

>  <pdb_id>  (8) 
8BOM_QU6

>  <pose_rank>  (8) 
7

>  <num_atoms_heavy>  (8) 
35

>  <num_torsions>  (8) 
6

>  <pose>  (8) 
[-84.80731901799574, -19.802486956969915, 90.26905525581911, 2.189590665720682, -0.8732169109784926, -4.722194882432736, -3.491745507884944, 2.6768598647609227, 0.20071793157675116, 8.586412410895859, 3.80197182649803, 4.128878556948286]

>  <energy>  (8) 
-769.3038410189381

>  <inter_energy>  (8) 
-843.6040820262317

>  <intra_energy>  (8) 
80.68014155442273

>  <rmsd>  (8) 
3.41643

>  <sdf_rank>  (8) 
0

$$$$

     RDKit          3D

 58 62  0  0  0  0  0  0  0  0999 V2000
  -82.4866  -20.9680   85.8014 N   0  0  0  0  0  0  0  0  0  0  0  0
  -76.8157  -18.0317   82.7629 N   0  0  0  0  0  0  0  0  0  0  0  0
  -85.0734  -19.7617   88.1082 C   0  0  0  0  0  0  0  0  0  0  0  0
  -85.6247  -18.3968   88.3675 C   0  0  0  0  0  0  0  0  0  0  0  0
  -87.4691  -17.1619   89.4500 C   0  0  0  0  0  0  0  0  0  0  0  0
  -87.7956  -16.7765   90.7484 C   0  0  0  0  0  0  0  0  0  0  0  0
  -88.6219  -15.6796   90.9531 C   0  0  0  0  0  0  0  0  0  0  0  0
  -89.1242  -14.9690   89.8701 C   0  0  0  0  0  0  0  0  0  0  0  0
  -84.0588  -19.7752   87.1608 C   0  0  0  0  0  0  0  0  0  0  0  0
  -81.1453  -20.7779   85.9200 C   0  0  0  0  0  0  0  0  0  0  0  0
  -78.7305  -18.9808   83.8849 C   0  0  0  0  0  0  0  0  0  0  0  0
  -77.6273  -17.6173   81.7843 C   0  0  0  0  0  0  0  0  0  0  0  0
  -77.3715  -18.6987   83.7828 C   0  0  0  0  0  0  0  0  0  0  0  0
  -79.1481  -20.4500   87.1586 C   0  0  0  0  0  0  0  0  0  0  0  0
  -80.6227  -21.4825   88.4571 C   0  0  0  0  0  0  0  0  0  0  0  0
  -86.6455  -18.2927   89.2399 N   0  0  0  0  0  0  0  0  0  0  0  0
  -83.5285  -23.5116   86.6022 C   0  0  0  0  0  0  0  0  0  0  0  0
  -88.9100  -15.3770   92.2672 O   0  0  0  0  0  0  0  0  0  0  0  0
  -84.0505  -22.1953   87.1285 C   0  0  0  0  0  0  0  0  0  0  0  0
  -88.7360  -15.3198   88.5885 C   0  0  0  0  0  0  0  0  0  0  0  0
  -87.8770  -16.3839   88.3786 C   0  0  0  0  0  0  0  0  0  0  0  0
  -83.5720  -20.9663   86.6277 C   0  0  0  0  0  0  0  0  0  0  0  0
  -79.2937  -19.7302   85.0278 C   0  0  0  0  0  0  0  0  0  0  0  0
  -79.5408  -18.5334   82.8465 C   0  0  0  0  0  0  0  0  0  0  0  0
  -78.9879  -17.8442   81.7834 C   0  0  0  0  0  0  0  0  0  0  0  0
  -85.0097  -22.1621   88.1426 C   0  0  0  0  0  0  0  0  0  0  0  0
  -80.4621  -20.9238   87.1686 C   0  0  0  0  0  0  0  0  0  0  0  0
  -77.2686  -20.4485   88.8460 C   0  0  0  0  0  0  0  0  0  0  0  0
  -85.5320  -20.9691   88.6132 C   0  0  0  0  0  0  0  0  0  0  0  0
  -88.0492  -14.4324   92.9242 C   0  0  0  0  0  0  0  0  0  0  0  0
  -80.5487  -20.1963   84.8740 N   0  0  0  0  0  0  0  0  0  0  0  0
  -78.5376  -19.8536   86.1303 N   0  0  0  0  0  0  0  0  0  0  0  0
  -79.5169  -21.3794   89.1662 N   0  0  0  0  0  0  0  0  0  0  0  0
  -78.6126  -20.7394   88.3670 N   0  0  0  0  0  0  0  0  0  0  0  0
  -85.1231  -17.4162   87.8270 O   0  0  0  0  0  0  0  0  0  0  0  0
  -82.7548  -21.1663   84.8269 H   0  0  0  0  0  0  0  0  0  0  0  0
  -87.4006  -17.3386   91.6074 H   0  0  0  0  0  0  0  0  0  0  0  0
  -89.8239  -14.1353   90.0295 H   0  0  0  0  0  0  0  0  0  0  0  0
  -83.6283  -18.8210   86.8227 H   0  0  0  0  0  0  0  0  0  0  0  0
  -77.1883  -17.0685   80.9382 H   0  0  0  0  0  0  0  0  0  0  0  0
  -76.7115  -19.0457   84.5915 H   0  0  0  0  0  0  0  0  0  0  0  0
  -81.5522  -21.9445   88.8214 H   0  0  0  0  0  0  0  0  0  0  0  0
  -86.8476  -19.1235   89.8143 H   0  0  0  0  0  0  0  0  0  0  0  0
  -83.2686  -24.1670   87.4465 H   0  0  0  0  0  0  0  0  0  0  0  0
  -84.3033  -23.9943   85.9884 H   0  0  0  0  0  0  0  0  0  0  0  0
  -82.6335  -23.3321   85.9884 H   0  0  0  0  0  0  0  0  0  0  0  0
  -89.1140  -14.7471   87.7288 H   0  0  0  0  0  0  0  0  0  0  0  0
  -87.5188  -16.6116   87.3637 H   0  0  0  0  0  0  0  0  0  0  0  0
  -80.6232  -18.7283   82.8714 H   0  0  0  0  0  0  0  0  0  0  0  0
  -79.6180  -17.4852   80.9563 H   0  0  0  0  0  0  0  0  0  0  0  0
  -85.3599  -23.1090   88.5794 H   0  0  0  0  0  0  0  0  0  0  0  0
  -77.2635  -20.4474   89.9460 H   0  0  0  0  0  0  0  0  0  0  0  0
  -76.5735  -21.2170   88.4769 H   0  0  0  0  0  0  0  0  0  0  0  0
  -76.9534  -19.4614   88.4769 H   0  0  0  0  0  0  0  0  0  0  0  0
  -86.3120  -20.9791   89.3887 H   0  0  0  0  0  0  0  0  0  0  0  0
  -88.1489  -14.5419   94.0142 H   0  0  0  0  0  0  0  0  0  0  0  0
  -87.0060  -14.6211   92.6306 H   0  0  0  0  0  0  0  0  0  0  0  0
  -88.3337  -13.4112   92.6306 H   0  0  0  0  0  0  0  0  0  0  0  0
  1 10  1  0
  1 22  1  0
  2 12  2  0
  2 13  1  0
  3  4  1  0
  3  9  2  0
  3 29  1  0
  4 16  1  0
  4 35  2  0
  5  6  2  0
  5 16  1  0
  5 21  1  0
  6  7  1  0
  7  8  2  0
  7 18  1  0
  8 20  1  0
  9 22  1  0
 10 27  2  0
 10 31  1  0
 11 13  2  0
 11 23  1  0
 11 24  1  0
 12 25  1  0
 14 27  1  0
 14 32  2  0
 14 34  1  0
 15 27  1  0
 15 33  2  0
 17 19  1  0
 18 30  1  0
 19 22  2  0
 19 26  1  0
 20 21  2  0
 23 31  2  0
 23 32  1  0
 24 25  2  0
 26 29  2  0
 28 34  1  0
 33 34  1  0
  1 36  1  0
  6 37  1  0
  8 38  1  0
  9 39  1  0
 12 40  1  0
 13 41  1  0
 15 42  1  0
 16 43  1  0
 17 44  1  0
 17 45  1  0
 17 46  1  0
 20 47  1  0
 21 48  1  0
 24 49  1  0
 25 50  1  0
 26 51  1  0
 28 52  1  0
 28 53  1  0
 28 54  1  0
 29 55  1  0
 30 56  1  0
 30 57  1  0
 30 58  1  0
M  END
>  <filename_input>  (9) 
8BOM_QU6_docked.sdf

>  <pdb_id>  (9) 
8BOM_QU6

>  <pose_rank>  (9) 
8

>  <num_atoms_heavy>  (9) 
35

>  <num_torsions>  (9) 
6

>  <pose>  (9) 
[-85.07337742148277, -19.761737589334885, 88.10820515399168, 4.613087823870766, 3.4617437187455744, 1.5136569562292839, 0.11028429125742874, -2.7383020735325303, -1.734187118970752, 0.21265387293422552, -3.0098839027155138, -2.795241354310912]

>  <energy>  (9) 
-1305.1385791427754

>  <inter_energy>  (9) 
-1301.9295689293635

>  <intra_energy>  (9) 
14.092785386458495

>  <rmsd>  (9) 
3.90024

>  <sdf_rank>  (9) 
0

$$$$

     RDKit          3D

 58 62  0  0  0  0  0  0  0  0999 V2000
  -80.0193  -20.7532   86.4991 N   0  0  0  0  0  0  0  0  0  0  0  0
  -85.8709  -20.2715   88.8773 N   0  0  0  0  0  0  0  0  0  0  0  0
  -77.4606  -20.0961   89.0464 C   0  0  0  0  0  0  0  0  0  0  0  0
  -76.2389  -19.2349   89.0381 C   0  0  0  0  0  0  0  0  0  0  0  0
  -74.8647  -17.7339   87.6393 C   0  0  0  0  0  0  0  0  0  0  0  0
  -74.2892  -16.8713   88.5698 C   0  0  0  0  0  0  0  0  0  0  0  0
  -73.1411  -16.1657   88.2357 C   0  0  0  0  0  0  0  0  0  0  0  0
  -72.5676  -16.3153   86.9791 C   0  0  0  0  0  0  0  0  0  0  0  0
  -78.1479  -20.0887   87.8404 C   0  0  0  0  0  0  0  0  0  0  0  0
  -81.1480  -20.2837   85.9034 C   0  0  0  0  0  0  0  0  0  0  0  0
  -84.3996  -19.3272   87.2131 C   0  0  0  0  0  0  0  0  0  0  0  0
  -86.4379  -19.0690   89.0206 C   0  0  0  0  0  0  0  0  0  0  0  0
  -84.8739  -20.3802   87.9896 C   0  0  0  0  0  0  0  0  0  0  0  0
  -82.3206  -19.0172   84.2751 C   0  0  0  0  0  0  0  0  0  0  0  0
  -80.3142  -19.5185   83.4691 C   0  0  0  0  0  0  0  0  0  0  0  0
  -76.0471  -18.4361   87.9709 N   0  0  0  0  0  0  0  0  0  0  0  0
  -81.3427  -21.9778   88.7230 C   0  0  0  0  0  0  0  0  0  0  0  0
  -72.6470  -15.3207   89.2069 O   0  0  0  0  0  0  0  0  0  0  0  0
  -79.9826  -21.3274   88.8190 C   0  0  0  0  0  0  0  0  0  0  0  0
  -73.1090  -17.2274   86.0896 C   0  0  0  0  0  0  0  0  0  0  0  0
  -74.2268  -17.9675   86.4317 C   0  0  0  0  0  0  0  0  0  0  0  0
  -79.4170  -20.6494   87.7187 C   0  0  0  0  0  0  0  0  0  0  0  0
  -83.2883  -19.4968   86.2533 C   0  0  0  0  0  0  0  0  0  0  0  0
  -85.0153  -18.0927   87.3921 C   0  0  0  0  0  0  0  0  0  0  0  0
  -86.0454  -17.9577   88.3041 C   0  0  0  0  0  0  0  0  0  0  0  0
  -79.2391  -21.3988   89.9988 C   0  0  0  0  0  0  0  0  0  0  0  0
  -81.1274  -19.6578   84.6171 C   0  0  0  0  0  0  0  0  0  0  0  0
  -83.1441  -17.8254   82.2059 C   0  0  0  0  0  0  0  0  0  0  0  0
  -78.0081  -20.7770   90.1233 C   0  0  0  0  0  0  0  0  0  0  0  0
  -73.5866  -14.4448   89.8507 C   0  0  0  0  0  0  0  0  0  0  0  0
  -82.2261  -20.2015   86.6904 N   0  0  0  0  0  0  0  0  0  0  0  0
  -83.4037  -18.9112   85.0507 N   0  0  0  0  0  0  0  0  0  0  0  0
  -80.9450  -18.8721   82.5097 N   0  0  0  0  0  0  0  0  0  0  0  0
  -82.1774  -18.5603   83.0096 N   0  0  0  0  0  0  0  0  0  0  0  0
  -75.4743  -19.2401   89.9977 O   0  0  0  0  0  0  0  0  0  0  0  0
  -79.4729  -21.3457   85.8578 H   0  0  0  0  0  0  0  0  0  0  0  0
  -74.7425  -16.7498   89.5647 H   0  0  0  0  0  0  0  0  0  0  0  0
  -71.6914  -15.7146   86.6937 H   0  0  0  0  0  0  0  0  0  0  0  0
  -77.6785  -19.6283   86.9585 H   0  0  0  0  0  0  0  0  0  0  0  0
  -87.2580  -18.9608   89.7457 H   0  0  0  0  0  0  0  0  0  0  0  0
  -84.3995  -21.3650   87.8664 H   0  0  0  0  0  0  0  0  0  0  0  0
  -79.2861  -19.9010   83.3873 H   0  0  0  0  0  0  0  0  0  0  0  0
  -76.8449  -18.3249   87.3290 H   0  0  0  0  0  0  0  0  0  0  0  0
  -81.7323  -22.1640   89.7347 H   0  0  0  0  0  0  0  0  0  0  0  0
  -82.0305  -21.3111   88.1822 H   0  0  0  0  0  0  0  0  0  0  0  0
  -81.2557  -22.9317   88.1822 H   0  0  0  0  0  0  0  0  0  0  0  0
  -72.6461  -17.3652   85.1013 H   0  0  0  0  0  0  0  0  0  0  0  0
  -74.6080  -18.7392   85.7469 H   0  0  0  0  0  0  0  0  0  0  0  0
  -84.6820  -17.2227   86.8072 H   0  0  0  0  0  0  0  0  0  0  0  0
  -86.5404  -16.9869   88.4547 H   0  0  0  0  0  0  0  0  0  0  0  0
  -79.6420  -21.9640   90.8521 H   0  0  0  0  0  0  0  0  0  0  0  0
  -83.8431  -17.2939   82.8684 H   0  0  0  0  0  0  0  0  0  0  0  0
  -82.6160  -17.0985   81.5711 H   0  0  0  0  0  0  0  0  0  0  0  0
  -83.7032  -18.5285   81.5711 H   0  0  0  0  0  0  0  0  0  0  0  0
  -77.4636  -20.8231   91.0780 H   0  0  0  0  0  0  0  0  0  0  0  0
  -73.4865  -14.5381   90.9422 H   0  0  0  0  0  0  0  0  0  0  0  0
  -73.3839  -13.4059   89.5515 H   0  0  0  0  0  0  0  0  0  0  0  0
  -74.6088  -14.7198   89.5515 H   0  0  0  0  0  0  0  0  0  0  0  0
  1 10  1  0
  1 22  1  0
  2 12  2  0
  2 13  1  0
  3  4  1  0
  3  9  2  0
  3 29  1  0
  4 16  1  0
  4 35  2  0
  5  6  2  0
  5 16  1  0
  5 21  1  0
  6  7  1  0
  7  8  2  0
  7 18  1  0
  8 20  1  0
  9 22  1  0
 10 27  2  0
 10 31  1  0
 11 13  2  0
 11 23  1  0
 11 24  1  0
 12 25  1  0
 14 27  1  0
 14 32  2  0
 14 34  1  0
 15 27  1  0
 15 33  2  0
 17 19  1  0
 18 30  1  0
 19 22  2  0
 19 26  1  0
 20 21  2  0
 23 31  2  0
 23 32  1  0
 24 25  2  0
 26 29  2  0
 28 34  1  0
 33 34  1  0
  1 36  1  0
  6 37  1  0
  8 38  1  0
  9 39  1  0
 12 40  1  0
 13 41  1  0
 15 42  1  0
 16 43  1  0
 17 44  1  0
 17 45  1  0
 17 46  1  0
 20 47  1  0
 21 48  1  0
 24 49  1  0
 25 50  1  0
 26 51  1  0
 28 52  1  0
 28 53  1  0
 28 54  1  0
 29 55  1  0
 30 56  1  0
 30 57  1  0
 30 58  1  0
M  END
>  <filename_input>  (10) 
8BOM_QU6_docked.sdf

>  <pdb_id>  (10) 
8BOM_QU6

>  <pose_rank>  (10) 
9

>  <num_atoms_heavy>  (10) 
35

>  <num_torsions>  (10) 
6

>  <pose>  (10) 
[-77.46055334321619, -20.096122671667775, 89.04640866396487, 0.4877901168484408, -3.609501874264155, 3.0284787784332305, -2.842265450510501, -1.3103244671141703, 2.1060654544792095, -3.1141713687413337, -1.0991146423148148, -0.6778283337096286]

>  <energy>  (10) 
-620.4169317741233

>  <inter_energy>  (10) 
-644.4655165871405

>  <intra_energy>  (10) 
45.314795650397414

>  <rmsd>  (10) 
9.06899

>  <sdf_rank>  (10) 
0

$$$$

     RDKit          3D

 58 62  0  0  0  0  0  0  0  0999 V2000
  -82.9618  -20.1783   85.3429 N   0  0  0  0  0  0  0  0  0  0  0  0
  -87.6180  -17.7956   90.0722 N   0  0  0  0  0  0  0  0  0  0  0  0
  -80.1983  -18.8506   83.3259 C   0  0  0  0  0  0  0  0  0  0  0  0
  -78.7583  -19.2380   83.2240 C   0  0  0  0  0  0  0  0  0  0  0  0
  -76.4579  -18.5333   83.7806 C   0  0  0  0  0  0  0  0  0  0  0  0
  -75.8632  -17.9975   82.6403 C   0  0  0  0  0  0  0  0  0  0  0  0
  -74.4830  -18.0451   82.4972 C   0  0  0  0  0  0  0  0  0  0  0  0
  -73.6959  -18.6258   83.4839 C   0  0  0  0  0  0  0  0  0  0  0  0
  -80.9062  -19.6008   84.2550 C   0  0  0  0  0  0  0  0  0  0  0  0
  -83.1670  -19.9953   86.6747 C   0  0  0  0  0  0  0  0  0  0  0  0
  -85.8505  -18.4220   88.5525 C   0  0  0  0  0  0  0  0  0  0  0  0
  -88.1045  -16.9815   89.1296 C   0  0  0  0  0  0  0  0  0  0  0  0
  -86.5136  -18.4922   89.7740 C   0  0  0  0  0  0  0  0  0  0  0  0
  -83.0296  -20.6428   88.9534 C   0  0  0  0  0  0  0  0  0  0  0  0
  -81.4232  -21.6803   87.8266 C   0  0  0  0  0  0  0  0  0  0  0  0
  -77.8656  -18.5053   83.9169 N   0  0  0  0  0  0  0  0  0  0  0  0
  -84.5013  -18.5010   83.6069 C   0  0  0  0  0  0  0  0  0  0  0  0
  -73.9774  -17.5091   81.3316 O   0  0  0  0  0  0  0  0  0  0  0  0
  -82.9977  -18.6239   83.5275 C   0  0  0  0  0  0  0  0  0  0  0  0
  -74.2932  -19.0914   84.6428 C   0  0  0  0  0  0  0  0  0  0  0  0
  -75.6636  -19.0068   84.8125 C   0  0  0  0  0  0  0  0  0  0  0  0
  -82.2951  -19.5397   84.3386 C   0  0  0  0  0  0  0  0  0  0  0  0
  -84.6276  -19.2050   88.2760 C   0  0  0  0  0  0  0  0  0  0  0  0
  -86.3877  -17.5634   87.5989 C   0  0  0  0  0  0  0  0  0  0  0  0
  -87.5262  -16.8337   87.8861 C   0  0  0  0  0  0  0  0  0  0  0  0
  -82.2605  -17.8160   82.6594 C   0  0  0  0  0  0  0  0  0  0  0  0
  -82.5159  -20.7983   87.6638 C   0  0  0  0  0  0  0  0  0  0  0  0
  -82.3906  -21.5546   91.2206 C   0  0  0  0  0  0  0  0  0  0  0  0
  -80.8863  -17.9381   82.5404 C   0  0  0  0  0  0  0  0  0  0  0  0
  -74.9137  -17.2435   80.2745 C   0  0  0  0  0  0  0  0  0  0  0  0
  -84.1991  -19.2090   86.9984 N   0  0  0  0  0  0  0  0  0  0  0  0
  -84.0678  -19.8743   89.2963 N   0  0  0  0  0  0  0  0  0  0  0  0
  -81.2669  -22.0228   89.0894 N   0  0  0  0  0  0  0  0  0  0  0  0
  -82.2595  -21.3873   89.7800 N   0  0  0  0  0  0  0  0  0  0  0  0
  -78.4284  -20.2167   82.5616 O   0  0  0  0  0  0  0  0  0  0  0  0
  -83.4369  -21.0258   85.0010 H   0  0  0  0  0  0  0  0  0  0  0  0
  -76.4843  -17.5388   81.8569 H   0  0  0  0  0  0  0  0  0  0  0  0
  -72.6083  -18.7148   83.3456 H   0  0  0  0  0  0  0  0  0  0  0  0
  -80.3562  -20.2602   84.9426 H   0  0  0  0  0  0  0  0  0  0  0  0
  -89.0106  -16.4008   89.3571 H   0  0  0  0  0  0  0  0  0  0  0  0
  -86.1045  -19.1629   90.5440 H   0  0  0  0  0  0  0  0  0  0  0  0
  -80.7848  -22.0352   87.0041 H   0  0  0  0  0  0  0  0  0  0  0  0
  -78.2480  -17.8566   84.6197 H   0  0  0  0  0  0  0  0  0  0  0  0
  -84.8119  -18.4757   84.6618 H   0  0  0  0  0  0  0  0  0  0  0  0
  -84.8202  -17.5738   83.1083 H   0  0  0  0  0  0  0  0  0  0  0  0
  -84.9665  -19.3642   83.1083 H   0  0  0  0  0  0  0  0  0  0  0  0
  -73.6722  -19.5328   85.4362 H   0  0  0  0  0  0  0  0  0  0  0  0
  -76.1215  -19.3146   85.7641 H   0  0  0  0  0  0  0  0  0  0  0  0
  -85.9058  -17.4648   86.6150 H   0  0  0  0  0  0  0  0  0  0  0  0
  -87.9607  -16.1515   87.1406 H   0  0  0  0  0  0  0  0  0  0  0  0
  -82.7854  -17.0625   82.0539 H   0  0  0  0  0  0  0  0  0  0  0  0
  -81.7908  -20.7891   91.7347 H   0  0  0  0  0  0  0  0  0  0  0  0
  -83.4469  -21.4466   91.5077 H   0  0  0  0  0  0  0  0  0  0  0  0
  -82.0330  -22.5545   91.5077 H   0  0  0  0  0  0  0  0  0  0  0  0
  -80.3394  -17.3102   81.8215 H   0  0  0  0  0  0  0  0  0  0  0  0
  -75.8867  -16.9675   80.7072 H   0  0  0  0  0  0  0  0  0  0  0  0
  -74.5405  -16.4158   79.6535 H   0  0  0  0  0  0  0  0  0  0  0  0
  -75.0307  -18.1439   79.6535 H   0  0  0  0  0  0  0  0  0  0  0  0
  1 10  1  0
  1 22  1  0
  2 12  2  0
  2 13  1  0
  3  4  1  0
  3  9  2  0
  3 29  1  0
  4 16  1  0
  4 35  2  0
  5  6  2  0
  5 16  1  0
  5 21  1  0
  6  7  1  0
  7  8  2  0
  7 18  1  0
  8 20  1  0
  9 22  1  0
 10 27  2  0
 10 31  1  0
 11 13  2  0
 11 23  1  0
 11 24  1  0
 12 25  1  0
 14 27  1  0
 14 32  2  0
 14 34  1  0
 15 27  1  0
 15 33  2  0
 17 19  1  0
 18 30  1  0
 19 22  2  0
 19 26  1  0
 20 21  2  0
 23 31  2  0
 23 32  1  0
 24 25  2  0
 26 29  2  0
 28 34  1  0
 33 34  1  0
  1 36  1  0
  6 37  1  0
  8 38  1  0
  9 39  1  0
 12 40  1  0
 13 41  1  0
 15 42  1  0
 16 43  1  0
 17 44  1  0
 17 45  1  0
 17 46  1  0
 20 47  1  0
 21 48  1  0
 24 49  1  0
 25 50  1  0
 26 51  1  0
 28 52  1  0
 28 53  1  0
 28 54  1  0
 29 55  1  0
 30 56  1  0
 30 57  1  0
 30 58  1  0
M  END
>  <filename_input>  (11) 
8BOM_QU6_docked.sdf

>  <pdb_id>  (11) 
8BOM_QU6

>  <pose_rank>  (11) 
10

>  <num_atoms_heavy>  (11) 
35

>  <num_torsions>  (11) 
6

>  <pose>  (11) 
[-80.19833757692726, -18.850644720882475, 83.32586058034451, 2.0679425602831256, 1.4572630663643449, 2.3357204276813164, 1.591469526948432, 0.885994551886297, 2.699754684488053, 6.537520764345362, 1.056328801776744, -3.216871390852502]

>  <energy>  (11) 
-724.2821430841973

>  <inter_energy>  (11) 
-708.2925517943352

>  <intra_energy>  (11) 
3.3246544725221936

>  <rmsd>  (11) 
9.96556

>  <sdf_rank>  (11) 
0

$$$$

     RDKit          3D

 58 62  0  0  0  0  0  0  0  0999 V2000
  -76.4255  -19.7129   86.1899 N   0  0  0  0  0  0  0  0  0  0  0  0
  -81.8983  -21.0476   88.7002 N   0  0  0  0  0  0  0  0  0  0  0  0
  -75.4549  -18.3454   89.4543 C   0  0  0  0  0  0  0  0  0  0  0  0
  -75.4690  -18.9324   90.8288 C   0  0  0  0  0  0  0  0  0  0  0  0
  -76.9158  -19.4578   92.7599 C   0  0  0  0  0  0  0  0  0  0  0  0
  -77.2173  -18.4363   93.6582 C   0  0  0  0  0  0  0  0  0  0  0  0
  -77.4383  -18.7389   94.9951 C   0  0  0  0  0  0  0  0  0  0  0  0
  -77.3576  -20.0531   95.4386 C   0  0  0  0  0  0  0  0  0  0  0  0
  -75.9491  -19.2054   88.4830 C   0  0  0  0  0  0  0  0  0  0  0  0
  -77.6115  -19.7317   85.5250 C   0  0  0  0  0  0  0  0  0  0  0  0
  -81.0475  -20.1155   86.6427 C   0  0  0  0  0  0  0  0  0  0  0  0
  -83.1194  -20.6251   88.3562 C   0  0  0  0  0  0  0  0  0  0  0  0
  -80.8954  -20.7888   87.8511 C   0  0  0  0  0  0  0  0  0  0  0  0
  -79.0906  -19.0469   83.8004 C   0  0  0  0  0  0  0  0  0  0  0  0
  -77.0053  -18.7283   83.1099 C   0  0  0  0  0  0  0  0  0  0  0  0
  -76.6686  -19.1477   91.4020 N   0  0  0  0  0  0  0  0  0  0  0  0
  -75.1211  -17.3401   85.2597 C   0  0  0  0  0  0  0  0  0  0  0  0
  -77.7127  -17.6683   95.8196 O   0  0  0  0  0  0  0  0  0  0  0  0
  -75.2550  -17.6978   86.7213 C   0  0  0  0  0  0  0  0  0  0  0  0
  -77.1263  -21.0658   94.5235 C   0  0  0  0  0  0  0  0  0  0  0  0
  -76.9497  -20.7770   93.1821 C   0  0  0  0  0  0  0  0  0  0  0  0
  -75.8174  -18.9271   87.1246 C   0  0  0  0  0  0  0  0  0  0  0  0
  -79.9052  -19.8456   85.7442 C   0  0  0  0  0  0  0  0  0  0  0  0
  -82.3330  -19.6918   86.3216 C   0  0  0  0  0  0  0  0  0  0  0  0
  -83.3827  -19.9471   87.1842 C   0  0  0  0  0  0  0  0  0  0  0  0
  -74.8416  -16.8077   87.7146 C   0  0  0  0  0  0  0  0  0  0  0  0
  -77.7636  -19.1629   84.2210 C   0  0  0  0  0  0  0  0  0  0  0  0
  -80.1944  -18.2984   81.6554 C   0  0  0  0  0  0  0  0  0  0  0  0
  -74.9176  -17.1296   89.0593 C   0  0  0  0  0  0  0  0  0  0  0  0
  -76.6728  -17.2535   96.7202 C   0  0  0  0  0  0  0  0  0  0  0  0
  -78.6790  -20.0710   86.2555 N   0  0  0  0  0  0  0  0  0  0  0  0
  -80.1714  -19.3663   84.5186 N   0  0  0  0  0  0  0  0  0  0  0  0
  -77.7825  -18.3929   82.1001 N   0  0  0  0  0  0  0  0  0  0  0  0
  -79.0652  -18.5850   82.5289 N   0  0  0  0  0  0  0  0  0  0  0  0
  -74.4161  -19.2386   91.3794 O   0  0  0  0  0  0  0  0  0  0  0  0
  -75.8258  -20.5036   85.9140 H   0  0  0  0  0  0  0  0  0  0  0  0
  -77.2800  -17.3949   93.3097 H   0  0  0  0  0  0  0  0  0  0  0  0
  -77.4763  -20.2867   96.5069 H   0  0  0  0  0  0  0  0  0  0  0  0
  -76.4575  -20.1300   88.7940 H   0  0  0  0  0  0  0  0  0  0  0  0
  -83.9553  -20.8281   89.0418 H   0  0  0  0  0  0  0  0  0  0  0  0
  -79.8867  -21.1304   88.1266 H   0  0  0  0  0  0  0  0  0  0  0  0
  -75.9067  -18.6768   83.0908 H   0  0  0  0  0  0  0  0  0  0  0  0
  -77.4922  -19.0794   90.7873 H   0  0  0  0  0  0  0  0  0  0  0  0
  -74.7370  -16.3136   85.1671 H   0  0  0  0  0  0  0  0  0  0  0  0
  -74.4233  -18.0380   84.7739 H   0  0  0  0  0  0  0  0  0  0  0  0
  -76.1057  -17.4084   84.7739 H   0  0  0  0  0  0  0  0  0  0  0  0
  -77.0826  -22.1101   94.8663 H   0  0  0  0  0  0  0  0  0  0  0  0
  -76.8364  -21.5925   92.4526 H   0  0  0  0  0  0  0  0  0  0  0  0
  -82.5146  -19.1529   85.3800 H   0  0  0  0  0  0  0  0  0  0  0  0
  -84.4037  -19.6174   86.9416 H   0  0  0  0  0  0  0  0  0  0  0  0
  -74.4450  -15.8246   87.4211 H   0  0  0  0  0  0  0  0  0  0  0  0
  -81.0818  -18.0732   82.2651 H   0  0  0  0  0  0  0  0  0  0  0  0
  -79.9563  -17.4322   81.0205 H   0  0  0  0  0  0  0  0  0  0  0  0
  -80.3981  -19.1733   81.0205 H   0  0  0  0  0  0  0  0  0  0  0  0
  -74.5511  -16.4197   89.8154 H   0  0  0  0  0  0  0  0  0  0  0  0
  -77.0111  -17.3885   97.7581 H   0  0  0  0  0  0  0  0  0  0  0  0
  -75.7728  -17.8615   96.5459 H   0  0  0  0  0  0  0  0  0  0  0  0
  -76.4382  -16.1930   96.5459 H   0  0  0  0  0  0  0  0  0  0  0  0
  1 10  1  0
  1 22  1  0
  2 12  2  0
  2 13  1  0
  3  4  1  0
  3  9  2  0
  3 29  1  0
  4 16  1  0
  4 35  2  0
  5  6  2  0
  5 16  1  0
  5 21  1  0
  6  7  1  0
  7  8  2  0
  7 18  1  0
  8 20  1  0
  9 22  1  0
 10 27  2  0
 10 31  1  0
 11 13  2  0
 11 23  1  0
 11 24  1  0
 12 25  1  0
 14 27  1  0
 14 32  2  0
 14 34  1  0
 15 27  1  0
 15 33  2  0
 17 19  1  0
 18 30  1  0
 19 22  2  0
 19 26  1  0
 20 21  2  0
 23 31  2  0
 23 32  1  0
 24 25  2  0
 26 29  2  0
 28 34  1  0
 33 34  1  0
  1 36  1  0
  6 37  1  0
  8 38  1  0
  9 39  1  0
 12 40  1  0
 13 41  1  0
 15 42  1  0
 16 43  1  0
 17 44  1  0
 17 45  1  0
 17 46  1  0
 20 47  1  0
 21 48  1  0
 24 49  1  0
 25 50  1  0
 26 51  1  0
 28 52  1  0
 28 53  1  0
 28 54  1  0
 29 55  1  0
 30 56  1  0
 30 57  1  0
 30 58  1  0
M  END
>  <filename_input>  (12) 
8BOM_QU6_docked.sdf

>  <pdb_id>  (12) 
8BOM_QU6

>  <pose_rank>  (12) 
11

>  <num_atoms_heavy>  (12) 
35

>  <num_torsions>  (12) 
6

>  <pose>  (12) 
[-75.45492677047595, -18.345448883542492, 89.45425496681898, -0.5717170598053807, 0.8951870361547776, 2.7803333831009707, 2.099643133067084, 1.2933110896126045, 1.0824657493229422, 0.5591573237920395, -1.7134683022471535, 6.181745986690439]

>  <energy>  (12) 
-727.3568112473029

>  <inter_energy>  (12) 
-714.0210333036633

>  <intra_energy>  (12) 
21.13195999791634

>  <rmsd>  (12) 
8.453

>  <sdf_rank>  (12) 
0

$$$$

     RDKit          3D

 58 62  0  0  0  0  0  0  0  0999 V2000
  -81.4885  -20.2445   85.2780 N   0  0  0  0  0  0  0  0  0  0  0  0
  -86.6156  -18.4094   89.7543 N   0  0  0  0  0  0  0  0  0  0  0  0
  -78.6958  -18.3300   83.8627 C   0  0  0  0  0  0  0  0  0  0  0  0
  -77.3210  -18.0407   84.3731 C   0  0  0  0  0  0  0  0  0  0  0  0
  -75.5698  -18.8085   85.9358 C   0  0  0  0  0  0  0  0  0  0  0  0
  -75.6659  -18.7683   87.3251 C   0  0  0  0  0  0  0  0  0  0  0  0
  -74.5206  -18.5885   88.0890 C   0  0  0  0  0  0  0  0  0  0  0  0
  -73.2831  -18.4466   87.4736 C   0  0  0  0  0  0  0  0  0  0  0  0
  -79.4647  -19.0774   84.7442 C   0  0  0  0  0  0  0  0  0  0  0  0
  -81.7834  -20.1027   86.5980 C   0  0  0  0  0  0  0  0  0  0  0  0
  -84.7057  -18.8238   88.3377 C   0  0  0  0  0  0  0  0  0  0  0  0
  -87.1172  -17.6164   88.8017 C   0  0  0  0  0  0  0  0  0  0  0  0
  -85.4339  -18.9914   89.5118 C   0  0  0  0  0  0  0  0  0  0  0  0
  -81.7096  -20.7694   88.8741 C   0  0  0  0  0  0  0  0  0  0  0  0
  -79.9508  -21.6302   87.8289 C   0  0  0  0  0  0  0  0  0  0  0  0
  -76.7391  -18.9693   85.1559 N   0  0  0  0  0  0  0  0  0  0  0  0
  -82.5378  -19.8963   82.6370 C   0  0  0  0  0  0  0  0  0  0  0  0
  -74.7061  -18.5424   89.4547 O   0  0  0  0  0  0  0  0  0  0  0  0
  -81.2034  -19.3451   83.0818 C   0  0  0  0  0  0  0  0  0  0  0  0
  -73.1924  -18.5582   86.0968 C   0  0  0  0  0  0  0  0  0  0  0  0
  -74.3232  -18.7823   85.3317 C   0  0  0  0  0  0  0  0  0  0  0  0
  -80.6854  -19.6293   84.3629 C   0  0  0  0  0  0  0  0  0  0  0  0
  -83.3995  -19.4813   88.1225 C   0  0  0  0  0  0  0  0  0  0  0  0
  -85.2613  -17.9908   87.3719 C   0  0  0  0  0  0  0  0  0  0  0  0
  -86.4793  -17.3789   87.6020 C   0  0  0  0  0  0  0  0  0  0  0  0
  -80.4552  -18.5204   82.2393 C   0  0  0  0  0  0  0  0  0  0  0  0
  -81.1131  -20.8548   87.6138 C   0  0  0  0  0  0  0  0  0  0  0  0
  -81.1110  -21.6508   91.1642 C   0  0  0  0  0  0  0  0  0  0  0  0
  -79.2119  -18.0361   82.6096 C   0  0  0  0  0  0  0  0  0  0  0  0
  -73.5796  -18.1472   90.2543 C   0  0  0  0  0  0  0  0  0  0  0  0
  -82.9030  -19.4243   86.8710 N   0  0  0  0  0  0  0  0  0  0  0  0
  -82.8345  -20.1096   89.1658 N   0  0  0  0  0  0  0  0  0  0  0  0
  -79.8318  -21.9758   89.0949 N   0  0  0  0  0  0  0  0  0  0  0  0
  -80.9177  -21.4493   89.7351 N   0  0  0  0  0  0  0  0  0  0  0  0
  -76.7457  -17.0082   84.0441 O   0  0  0  0  0  0  0  0  0  0  0  0
  -82.0116  -21.0252   84.8564 H   0  0  0  0  0  0  0  0  0  0  0  0
  -76.6448  -18.8786   87.8146 H   0  0  0  0  0  0  0  0  0  0  0  0
  -72.3837  -18.2474   88.0749 H   0  0  0  0  0  0  0  0  0  0  0  0
  -79.1008  -19.2379   85.7698 H   0  0  0  0  0  0  0  0  0  0  0  0
  -88.0866  -17.1294   88.9837 H   0  0  0  0  0  0  0  0  0  0  0  0
  -85.0120  -19.6437   90.2905 H   0  0  0  0  0  0  0  0  0  0  0  0
  -79.2368  -21.9094   87.0400 H   0  0  0  0  0  0  0  0  0  0  0  0
  -77.1928  -19.8933   85.1904 H   0  0  0  0  0  0  0  0  0  0  0  0
  -83.1439  -20.1466   83.5202 H   0  0  0  0  0  0  0  0  0  0  0  0
  -83.0634  -19.1416   82.0335 H   0  0  0  0  0  0  0  0  0  0  0  0
  -82.3777  -20.8019   82.0335 H   0  0  0  0  0  0  0  0  0  0  0  0
  -72.2120  -18.4678   85.6063 H   0  0  0  0  0  0  0  0  0  0  0  0
  -74.2328  -18.9394   84.2468 H   0  0  0  0  0  0  0  0  0  0  0  0
  -84.7306  -17.8189   86.4238 H   0  0  0  0  0  0  0  0  0  0  0  0
  -86.9291  -16.7181   86.8463 H   0  0  0  0  0  0  0  0  0  0  0  0
  -80.8644  -18.2483   81.2552 H   0  0  0  0  0  0  0  0  0  0  0  0
  -80.4549  -20.9671   91.7229 H   0  0  0  0  0  0  0  0  0  0  0  0
  -82.1601  -21.4469   91.4246 H   0  0  0  0  0  0  0  0  0  0  0  0
  -80.8639  -22.6906   91.4246 H   0  0  0  0  0  0  0  0  0  0  0  0
  -78.6327  -17.4171   81.9085 H   0  0  0  0  0  0  0  0  0  0  0  0
  -73.8367  -18.2374   91.3200 H   0  0  0  0  0  0  0  0  0  0  0  0
  -72.7225  -18.7983   90.0275 H   0  0  0  0  0  0  0  0  0  0  0  0
  -73.3171  -17.1033   90.0275 H   0  0  0  0  0  0  0  0  0  0  0  0
  1 10  1  0
  1 22  1  0
  2 12  2  0
  2 13  1  0
  3  4  1  0
  3  9  2  0
  3 29  1  0
  4 16  1  0
  4 35  2  0
  5  6  2  0
  5 16  1  0
  5 21  1  0
  6  7  1  0
  7  8  2  0
  7 18  1  0
  8 20  1  0
  9 22  1  0
 10 27  2  0
 10 31  1  0
 11 13  2  0
 11 23  1  0
 11 24  1  0
 12 25  1  0
 14 27  1  0
 14 32  2  0
 14 34  1  0
 15 27  1  0
 15 33  2  0
 17 19  1  0
 18 30  1  0
 19 22  2  0
 19 26  1  0
 20 21  2  0
 23 31  2  0
 23 32  1  0
 24 25  2  0
 26 29  2  0
 28 34  1  0
 33 34  1  0
  1 36  1  0
  6 37  1  0
  8 38  1  0
  9 39  1  0
 12 40  1  0
 13 41  1  0
 15 42  1  0
 16 43  1  0
 17 44  1  0
 17 45  1  0
 17 46  1  0
 20 47  1  0
 21 48  1  0
 24 49  1  0
 25 50  1  0
 26 51  1  0
 28 52  1  0
 28 53  1  0
 28 54  1  0
 29 55  1  0
 30 56  1  0
 30 57  1  0
 30 58  1  0
M  END
>  <filename_input>  (13) 
8BOM_QU6_docked.sdf

>  <pdb_id>  (13) 
8BOM_QU6

>  <pose_rank>  (13) 
12

>  <num_atoms_heavy>  (13) 
35

>  <num_torsions>  (13) 
6

>  <pose>  (13) 
[-78.69580722913652, -18.329968888942695, 83.86265081754607, 1.228472533103809, 2.2001450233396986, 2.180699192808516, -2.4213523039000804, 1.558823247973426, -0.034004576878058315, -0.46482436045937137, 1.2536480595586286, 3.0502124576020857]

>  <energy>  (13) 
-547.2886109048779

>  <inter_energy>  (13) 
-564.4140329139564

>  <intra_energy>  (13) 
3.380514859304527

>  <rmsd>  (13) 
9.49671

>  <sdf_rank>  (13) 
0

$$$$

     RDKit          3D

 58 62  0  0  0  0  0  0  0  0999 V2000
  -77.0342  -19.6552   86.7308 N   0  0  0  0  0  0  0  0  0  0  0  0
  -83.8245  -20.2493   86.6837 N   0  0  0  0  0  0  0  0  0  0  0  0
  -76.2333  -17.2438   89.3787 C   0  0  0  0  0  0  0  0  0  0  0  0
  -76.0776  -15.7572   89.3642 C   0  0  0  0  0  0  0  0  0  0  0  0
  -75.4691  -13.8007   90.7426 C   0  0  0  0  0  0  0  0  0  0  0  0
  -75.0242  -12.8888   89.7879 C   0  0  0  0  0  0  0  0  0  0  0  0
  -74.9754  -11.5365   90.0984 C   0  0  0  0  0  0  0  0  0  0  0  0
  -75.3657  -11.0917   91.3554 C   0  0  0  0  0  0  0  0  0  0  0  0
  -76.5084  -17.7811   88.1286 C   0  0  0  0  0  0  0  0  0  0  0  0
  -78.0203  -19.7880   85.8038 C   0  0  0  0  0  0  0  0  0  0  0  0
  -81.5321  -20.6834   86.0654 C   0  0  0  0  0  0  0  0  0  0  0  0
  -83.9129  -21.5046   87.1359 C   0  0  0  0  0  0  0  0  0  0  0  0
  -82.6528  -19.8640   86.1616 C   0  0  0  0  0  0  0  0  0  0  0  0
  -79.1435  -19.1983   83.7985 C   0  0  0  0  0  0  0  0  0  0  0  0
  -77.0215  -18.5693   83.6304 C   0  0  0  0  0  0  0  0  0  0  0  0
  -75.4980  -15.1811   90.4347 N   0  0  0  0  0  0  0  0  0  0  0  0
  -77.3128  -21.4135   88.9730 C   0  0  0  0  0  0  0  0  0  0  0  0
  -74.5061  -10.7046   89.1038 O   0  0  0  0  0  0  0  0  0  0  0  0
  -76.9254  -19.9588   89.0992 C   0  0  0  0  0  0  0  0  0  0  0  0
  -75.8713  -11.9993   92.2703 C   0  0  0  0  0  0  0  0  0  0  0  0
  -75.9652  -13.3426   91.9524 C   0  0  0  0  0  0  0  0  0  0  0  0
  -76.8994  -19.1089   87.9735 C   0  0  0  0  0  0  0  0  0  0  0  0
  -80.2632  -20.2129   85.4708 C   0  0  0  0  0  0  0  0  0  0  0  0
  -81.6649  -21.9820   86.5464 C   0  0  0  0  0  0  0  0  0  0  0  0
  -82.8657  -22.4011   87.0880 C   0  0  0  0  0  0  0  0  0  0  0  0
  -76.5623  -19.4216   90.3358 C   0  0  0  0  0  0  0  0  0  0  0  0
  -77.9464  -19.1656   84.5177 C   0  0  0  0  0  0  0  0  0  0  0  0
  -79.8174  -18.4711   81.4753 C   0  0  0  0  0  0  0  0  0  0  0  0
  -76.2420  -18.0824   90.4831 C   0  0  0  0  0  0  0  0  0  0  0  0
  -73.0943  -10.4377   89.0871 C   0  0  0  0  0  0  0  0  0  0  0  0
  -79.1687  -20.3072   86.2511 N   0  0  0  0  0  0  0  0  0  0  0  0
  -80.3046  -19.6988   84.2312 N   0  0  0  0  0  0  0  0  0  0  0  0
  -77.5843  -18.2773   82.4752 N   0  0  0  0  0  0  0  0  0  0  0  0
  -78.8911  -18.6606   82.5828 N   0  0  0  0  0  0  0  0  0  0  0  0
  -76.4333  -15.1096   88.3847 O   0  0  0  0  0  0  0  0  0  0  0  0
  -76.1536  -20.0811   86.4084 H   0  0  0  0  0  0  0  0  0  0  0  0
  -74.7129  -13.2387   88.7925 H   0  0  0  0  0  0  0  0  0  0  0  0
  -75.2738  -10.0283   91.6212 H   0  0  0  0  0  0  0  0  0  0  0  0
  -76.4152  -17.1421   87.2381 H   0  0  0  0  0  0  0  0  0  0  0  0
  -84.8679  -21.8388   87.5675 H   0  0  0  0  0  0  0  0  0  0  0  0
  -82.5712  -18.8338   85.7847 H   0  0  0  0  0  0  0  0  0  0  0  0
  -75.9666  -18.3739   83.8732 H   0  0  0  0  0  0  0  0  0  0  0  0
  -75.0263  -15.8116   91.0987 H   0  0  0  0  0  0  0  0  0  0  0  0
  -77.4291  -21.8502   89.9759 H   0  0  0  0  0  0  0  0  0  0  0  0
  -78.2636  -21.4936   88.4257 H   0  0  0  0  0  0  0  0  0  0  0  0
  -76.5278  -21.9559   88.4257 H   0  0  0  0  0  0  0  0  0  0  0  0
  -76.2016  -11.6492   93.2594 H   0  0  0  0  0  0  0  0  0  0  0  0
  -76.4325  -14.0449   92.6583 H   0  0  0  0  0  0  0  0  0  0  0  0
  -80.8132  -22.6763   86.4957 H   0  0  0  0  0  0  0  0  0  0  0  0
  -82.9833  -23.4252   87.4718 H   0  0  0  0  0  0  0  0  0  0  0  0
  -76.5299  -20.0797   91.2166 H   0  0  0  0  0  0  0  0  0  0  0  0
  -80.8233  -18.2653   81.8699 H   0  0  0  0  0  0  0  0  0  0  0  0
  -79.4843  -17.6225   80.8598 H   0  0  0  0  0  0  0  0  0  0  0  0
  -79.8443  -19.3824   80.8598 H   0  0  0  0  0  0  0  0  0  0  0  0
  -75.9940  -17.6833   91.4777 H   0  0  0  0  0  0  0  0  0  0  0  0
  -72.7222  -10.3673   90.1199 H   0  0  0  0  0  0  0  0  0  0  0  0
  -72.5731  -11.2531   88.5644 H   0  0  0  0  0  0  0  0  0  0  0  0
  -72.9068   -9.4881   88.5644 H   0  0  0  0  0  0  0  0  0  0  0  0
  1 10  1  0
  1 22  1  0
  2 12  2  0
  2 13  1  0
  3  4  1  0
  3  9  2  0
  3 29  1  0
  4 16  1  0
  4 35  2  0
  5  6  2  0
  5 16  1  0
  5 21  1  0
  6  7  1  0
  7  8  2  0
  7 18  1  0
  8 20  1  0
  9 22  1  0
 10 27  2  0
 10 31  1  0
 11 13  2  0
 11 23  1  0
 11 24  1  0
 12 25  1  0
 14 27  1  0
 14 32  2  0
 14 34  1  0
 15 27  1  0
 15 33  2  0
 17 19  1  0
 18 30  1  0
 19 22  2  0
 19 26  1  0
 20 21  2  0
 23 31  2  0
 23 32  1  0
 24 25  2  0
 26 29  2  0
 28 34  1  0
 33 34  1  0
  1 36  1  0
  6 37  1  0
  8 38  1  0
  9 39  1  0
 12 40  1  0
 13 41  1  0
 15 42  1  0
 16 43  1  0
 17 44  1  0
 17 45  1  0
 17 46  1  0
 20 47  1  0
 21 48  1  0
 24 49  1  0
 25 50  1  0
 26 51  1  0
 28 52  1  0
 28 53  1  0
 28 54  1  0
 29 55  1  0
 30 56  1  0
 30 57  1  0
 30 58  1  0
M  END
>  <filename_input>  (14) 
8BOM_QU6_docked.sdf

>  <pdb_id>  (14) 
8BOM_QU6

>  <pose_rank>  (14) 
13

>  <num_atoms_heavy>  (14) 
35

>  <num_torsions>  (14) 
6

>  <pose>  (14) 
[-76.23328445238491, -17.24377707846215, 89.37871551798337, 2.970143577782739, -4.068377098567145, 1.4119627246121251, 0.42450669104747246, -1.2672783203970446, 1.351842152402382, 3.672787378077237, -1.357591968993094, 2.253653123857839]

>  <energy>  (14) 
-656.7696590499231

>  <inter_energy>  (14) 
-679.1429793608752

>  <intra_energy>  (14) 
13.965129309276504

>  <rmsd>  (14) 
8.75003

>  <sdf_rank>  (14) 
0

$$$$

     RDKit          3D

 58 62  0  0  0  0  0  0  0  0999 V2000
  -77.2305  -18.4542   87.5593 N   0  0  0  0  0  0  0  0  0  0  0  0
  -83.4532  -21.7558   87.1865 N   0  0  0  0  0  0  0  0  0  0  0  0
  -75.5634  -19.1812   90.7467 C   0  0  0  0  0  0  0  0  0  0  0  0
  -76.0963  -19.5636   92.0899 C   0  0  0  0  0  0  0  0  0  0  0  0
  -75.4490  -20.2132   94.3828 C   0  0  0  0  0  0  0  0  0  0  0  0
  -76.5530  -21.0396   94.5812 C   0  0  0  0  0  0  0  0  0  0  0  0
  -76.7904  -21.5803   95.8378 C   0  0  0  0  0  0  0  0  0  0  0  0
  -75.9341  -21.2987   96.8950 C   0  0  0  0  0  0  0  0  0  0  0  0
  -76.5568  -18.9576   89.8032 C   0  0  0  0  0  0  0  0  0  0  0  0
  -78.0793  -19.0911   86.7088 C   0  0  0  0  0  0  0  0  0  0  0  0
  -81.2177  -20.8466   87.2291 C   0  0  0  0  0  0  0  0  0  0  0  0
  -83.3276  -22.0566   88.4833 C   0  0  0  0  0  0  0  0  0  0  0  0
  -82.4109  -21.1653   86.5876 C   0  0  0  0  0  0  0  0  0  0  0  0
  -79.1882  -19.3719   84.6299 C   0  0  0  0  0  0  0  0  0  0  0  0
  -77.3154  -18.2323   84.2827 C   0  0  0  0  0  0  0  0  0  0  0  0
  -75.2188  -19.6438   93.1084 N   0  0  0  0  0  0  0  0  0  0  0  0
  -74.5421  -18.5909   86.5844 C   0  0  0  0  0  0  0  0  0  0  0  0
  -77.9136  -22.3720   95.9525 O   0  0  0  0  0  0  0  0  0  0  0  0
  -74.9117  -18.7836   88.0365 C   0  0  0  0  0  0  0  0  0  0  0  0
  -74.8032  -20.5334   96.6677 C   0  0  0  0  0  0  0  0  0  0  0  0
  -74.5355  -20.0280   95.4079 C   0  0  0  0  0  0  0  0  0  0  0  0
  -76.2601  -18.8066   88.4508 C   0  0  0  0  0  0  0  0  0  0  0  0
  -80.0917  -20.2032   86.5200 C   0  0  0  0  0  0  0  0  0  0  0  0
  -81.1264  -21.1763   88.5775 C   0  0  0  0  0  0  0  0  0  0  0  0
  -82.1898  -21.7876   89.2152 C   0  0  0  0  0  0  0  0  0  0  0  0
  -73.9227  -18.9243   89.0121 C   0  0  0  0  0  0  0  0  0  0  0  0
  -78.0960  -18.8207   85.3040 C   0  0  0  0  0  0  0  0  0  0  0  0
  -79.8834  -19.4790   82.2039 C   0  0  0  0  0  0  0  0  0  0  0  0
  -74.2374  -19.1417   90.3429 C   0  0  0  0  0  0  0  0  0  0  0  0
  -78.9293  -22.2149   94.9483 C   0  0  0  0  0  0  0  0  0  0  0  0
  -79.0668  -19.7829   87.2873 N   0  0  0  0  0  0  0  0  0  0  0  0
  -80.1921  -20.0537   85.1895 N   0  0  0  0  0  0  0  0  0  0  0  0
  -77.8603  -18.4144   83.0969 N   0  0  0  0  0  0  0  0  0  0  0  0
  -79.0150  -19.1114   83.3135 N   0  0  0  0  0  0  0  0  0  0  0  0
  -77.2987  -19.7517   92.2454 O   0  0  0  0  0  0  0  0  0  0  0  0
  -77.3533  -17.4323   87.5197 H   0  0  0  0  0  0  0  0  0  0  0  0
  -77.2334  -21.2626   93.7462 H   0  0  0  0  0  0  0  0  0  0  0  0
  -76.1528  -21.6803   97.9032 H   0  0  0  0  0  0  0  0  0  0  0  0
  -77.6049  -18.8981   90.1320 H   0  0  0  0  0  0  0  0  0  0  0  0
  -84.1734  -22.5427   88.9916 H   0  0  0  0  0  0  0  0  0  0  0  0
  -82.5040  -20.9161   85.5202 H   0  0  0  0  0  0  0  0  0  0  0  0
  -76.3732  -17.6916   84.4559 H   0  0  0  0  0  0  0  0  0  0  0  0
  -74.2820  -19.2492   92.9421 H   0  0  0  0  0  0  0  0  0  0  0  0
  -73.5684  -18.0834   86.5182 H   0  0  0  0  0  0  0  0  0  0  0  0
  -74.4792  -19.5710   86.0889 H   0  0  0  0  0  0  0  0  0  0  0  0
  -75.3094  -17.9780   86.0889 H   0  0  0  0  0  0  0  0  0  0  0  0
  -74.1107  -20.3251   97.4966 H   0  0  0  0  0  0  0  0  0  0  0  0
  -73.5999  -19.4806   95.2206 H   0  0  0  0  0  0  0  0  0  0  0  0
  -80.2068  -20.9502   89.1372 H   0  0  0  0  0  0  0  0  0  0  0  0
  -82.1300  -22.0532   90.2809 H   0  0  0  0  0  0  0  0  0  0  0  0
  -72.8653  -18.8609   88.7154 H   0  0  0  0  0  0  0  0  0  0  0  0
  -80.8298  -19.8797   82.5962 H   0  0  0  0  0  0  0  0  0  0  0  0
  -80.0884  -18.5905   81.5887 H   0  0  0  0  0  0  0  0  0  0  0  0
  -79.3881  -20.2447   81.5887 H   0  0  0  0  0  0  0  0  0  0  0  0
  -73.4341  -19.2832   91.0811 H   0  0  0  0  0  0  0  0  0  0  0  0
  -79.9047  -22.0641   95.4339 H   0  0  0  0  0  0  0  0  0  0  0  0
  -78.6931  -21.3426   94.3212 H   0  0  0  0  0  0  0  0  0  0  0  0
  -78.9676  -23.1178   94.3212 H   0  0  0  0  0  0  0  0  0  0  0  0
  1 10  1  0
  1 22  1  0
  2 12  2  0
  2 13  1  0
  3  4  1  0
  3  9  2  0
  3 29  1  0
  4 16  1  0
  4 35  2  0
  5  6  2  0
  5 16  1  0
  5 21  1  0
  6  7  1  0
  7  8  2  0
  7 18  1  0
  8 20  1  0
  9 22  1  0
 10 27  2  0
 10 31  1  0
 11 13  2  0
 11 23  1  0
 11 24  1  0
 12 25  1  0
 14 27  1  0
 14 32  2  0
 14 34  1  0
 15 27  1  0
 15 33  2  0
 17 19  1  0
 18 30  1  0
 19 22  2  0
 19 26  1  0
 20 21  2  0
 23 31  2  0
 23 32  1  0
 24 25  2  0
 26 29  2  0
 28 34  1  0
 33 34  1  0
  1 36  1  0
  6 37  1  0
  8 38  1  0
  9 39  1  0
 12 40  1  0
 13 41  1  0
 15 42  1  0
 16 43  1  0
 17 44  1  0
 17 45  1  0
 17 46  1  0
 20 47  1  0
 21 48  1  0
 24 49  1  0
 25 50  1  0
 26 51  1  0
 28 52  1  0
 28 53  1  0
 28 54  1  0
 29 55  1  0
 30 56  1  0
 30 57  1  0
 30 58  1  0
M  END
>  <filename_input>  (15) 
8BOM_QU6_docked.sdf

>  <pdb_id>  (15) 
8BOM_QU6

>  <pose_rank>  (15) 
14

>  <num_atoms_heavy>  (15) 
35

>  <num_torsions>  (15) 
6

>  <pose>  (15) 
[-75.5634127579116, -19.181209645917896, 90.74672664086057, -0.22185051553528345, -1.6797433684125587, -4.029269764224171, 0.2846810828084906, -0.08592663635177898, -3.68794301580721, -2.697432870145629, 0.7709686762053531, 3.0863869362866305]

>  <energy>  (15) 
-616.5907573109639

>  <inter_energy>  (15) 
-621.0021951200035

>  <intra_energy>  (15) 
23.25115010169261

>  <rmsd>  (15) 
9.08227

>  <sdf_rank>  (15) 
0

$$$$

     RDKit          3D

 58 62  0  0  0  0  0  0  0  0999 V2000
  -78.4315  -21.0857   87.5076 N   0  0  0  0  0  0  0  0  0  0  0  0
  -84.9010  -19.6507   87.9914 N   0  0  0  0  0  0  0  0  0  0  0  0
  -78.6650  -21.0830   91.1700 C   0  0  0  0  0  0  0  0  0  0  0  0
  -79.4904  -21.8892   92.1202 C   0  0  0  0  0  0  0  0  0  0  0  0
  -79.7017  -22.5948   94.4773 C   0  0  0  0  0  0  0  0  0  0  0  0
  -80.9489  -23.2047   94.3605 C   0  0  0  0  0  0  0  0  0  0  0  0
  -81.4246  -24.0013   95.3935 C   0  0  0  0  0  0  0  0  0  0  0  0
  -80.6637  -24.1894   96.5406 C   0  0  0  0  0  0  0  0  0  0  0  0
  -78.9126  -21.3798   89.8367 C   0  0  0  0  0  0  0  0  0  0  0  0
  -79.3511  -20.5942   86.6346 C   0  0  0  0  0  0  0  0  0  0  0  0
  -82.9779  -20.3998   86.7396 C   0  0  0  0  0  0  0  0  0  0  0  0
  -85.5498  -20.7541   87.6046 C   0  0  0  0  0  0  0  0  0  0  0  0
  -83.6436  -19.4921   87.5580 C   0  0  0  0  0  0  0  0  0  0  0  0
  -80.1136  -19.0591   84.9937 C   0  0  0  0  0  0  0  0  0  0  0  0
  -77.8947  -19.0948   84.9502 C   0  0  0  0  0  0  0  0  0  0  0  0
  -79.2261  -21.7651   93.4350 N   0  0  0  0  0  0  0  0  0  0  0  0
  -76.1588  -19.4324   88.0538 C   0  0  0  0  0  0  0  0  0  0  0  0
  -82.6745  -24.5523   95.2052 O   0  0  0  0  0  0  0  0  0  0  0  0
  -77.0490  -20.0059   89.1312 C   0  0  0  0  0  0  0  0  0  0  0  0
  -79.3974  -23.6348   96.6142 C   0  0  0  0  0  0  0  0  0  0  0  0
  -78.8980  -22.8768   95.5701 C   0  0  0  0  0  0  0  0  0  0  0  0
  -78.0967  -20.8967   88.8164 C   0  0  0  0  0  0  0  0  0  0  0  0
  -81.5914  -20.1734   86.2798 C   0  0  0  0  0  0  0  0  0  0  0  0
  -83.6874  -21.5343   86.3590 C   0  0  0  0  0  0  0  0  0  0  0  0
  -84.9868  -21.7173   86.7936 C   0  0  0  0  0  0  0  0  0  0  0  0
  -76.8688  -19.6512   90.4696 C   0  0  0  0  0  0  0  0  0  0  0  0
  -79.0109  -19.6361   85.6281 C   0  0  0  0  0  0  0  0  0  0  0  0
  -80.3873  -17.4344   83.0792 C   0  0  0  0  0  0  0  0  0  0  0  0
  -77.6463  -20.1942   91.4786 C   0  0  0  0  0  0  0  0  0  0  0  0
  -82.8721  -25.8979   95.6688 C   0  0  0  0  0  0  0  0  0  0  0  0
  -80.6287  -20.8523   86.9340 N   0  0  0  0  0  0  0  0  0  0  0  0
  -81.3966  -19.2918   85.2861 N   0  0  0  0  0  0  0  0  0  0  0  0
  -78.2685  -18.2790   83.9852 N   0  0  0  0  0  0  0  0  0  0  0  0
  -79.6339  -18.2547   84.0172 N   0  0  0  0  0  0  0  0  0  0  0  0
  -80.3981  -22.5993   91.6993 O   0  0  0  0  0  0  0  0  0  0  0  0
  -77.8256  -21.7888   87.0610 H   0  0  0  0  0  0  0  0  0  0  0  0
  -81.5540  -23.0559   93.4541 H   0  0  0  0  0  0  0  0  0  0  0  0
  -81.0637  -24.7735   97.3824 H   0  0  0  0  0  0  0  0  0  0  0  0
  -79.7749  -22.0124   89.5794 H   0  0  0  0  0  0  0  0  0  0  0  0
  -86.5837  -20.9008   87.9504 H   0  0  0  0  0  0  0  0  0  0  0  0
  -83.1024  -18.5863   87.8689 H   0  0  0  0  0  0  0  0  0  0  0  0
  -76.8477  -19.3252   85.1967 H   0  0  0  0  0  0  0  0  0  0  0  0
  -78.6134  -20.9842   93.7104 H   0  0  0  0  0  0  0  0  0  0  0  0
  -75.3210  -18.8926   88.5193 H   0  0  0  0  0  0  0  0  0  0  0  0
  -75.7672  -20.2485   87.4288 H   0  0  0  0  0  0  0  0  0  0  0  0
  -76.7400  -18.7384   87.4288 H   0  0  0  0  0  0  0  0  0  0  0  0
  -78.7824  -23.7983   97.5115 H   0  0  0  0  0  0  0  0  0  0  0  0
  -77.8656  -22.4990   95.6074 H   0  0  0  0  0  0  0  0  0  0  0  0
  -83.2137  -22.2866   85.7112 H   0  0  0  0  0  0  0  0  0  0  0  0
  -85.5583  -22.6101   86.4997 H   0  0  0  0  0  0  0  0  0  0  0  0
  -76.0883  -18.9209   90.7294 H   0  0  0  0  0  0  0  0  0  0  0  0
  -81.0289  -16.7358   83.6364 H   0  0  0  0  0  0  0  0  0  0  0  0
  -79.6896  -16.8663   82.4464 H   0  0  0  0  0  0  0  0  0  0  0  0
  -81.0126  -18.0813   82.4464 H   0  0  0  0  0  0  0  0  0  0  0  0
  -77.4555  -19.9200   92.5267 H   0  0  0  0  0  0  0  0  0  0  0  0
  -82.8739  -25.9103   96.7687 H   0  0  0  0  0  0  0  0  0  0  0  0
  -83.8355  -26.2763   95.2963 H   0  0  0  0  0  0  0  0  0  0  0  0
  -82.0583  -26.5374   95.2963 H   0  0  0  0  0  0  0  0  0  0  0  0
  1 10  1  0
  1 22  1  0
  2 12  2  0
  2 13  1  0
  3  4  1  0
  3  9  2  0
  3 29  1  0
  4 16  1  0
  4 35  2  0
  5  6  2  0
  5 16  1  0
  5 21  1  0
  6  7  1  0
  7  8  2  0
  7 18  1  0
  8 20  1  0
  9 22  1  0
 10 27  2  0
 10 31  1  0
 11 13  2  0
 11 23  1  0
 11 24  1  0
 12 25  1  0
 14 27  1  0
 14 32  2  0
 14 34  1  0
 15 27  1  0
 15 33  2  0
 17 19  1  0
 18 30  1  0
 19 22  2  0
 19 26  1  0
 20 21  2  0
 23 31  2  0
 23 32  1  0
 24 25  2  0
 26 29  2  0
 28 34  1  0
 33 34  1  0
  1 36  1  0
  6 37  1  0
  8 38  1  0
  9 39  1  0
 12 40  1  0
 13 41  1  0
 15 42  1  0
 16 43  1  0
 17 44  1  0
 17 45  1  0
 17 46  1  0
 20 47  1  0
 21 48  1  0
 24 49  1  0
 25 50  1  0
 26 51  1  0
 28 52  1  0
 28 53  1  0
 28 54  1  0
 29 55  1  0
 30 56  1  0
 30 57  1  0
 30 58  1  0
M  END
>  <filename_input>  (16) 
8BOM_QU6_docked.sdf

>  <pdb_id>  (16) 
8BOM_QU6

>  <pose_rank>  (16) 
15

>  <num_atoms_heavy>  (16) 
35

>  <num_torsions>  (16) 
6

>  <pose>  (16) 
[-78.66496961718019, -21.08302808527015, 91.16999666446122, -0.7605432614069734, 0.39351048028108465, 2.2397050298245054, 0.03765973141135943, -0.8965392707349349, -0.8767263015833693, 0.2263974014388779, 4.712346927307697, 1.8659986993673117]

>  <energy>  (16) 
-544.193804979801

>  <inter_energy>  (16) 
-568.876920747331

>  <intra_energy>  (16) 
24.486792843899085

>  <rmsd>  (16) 
7.86966

>  <sdf_rank>  (16) 
0

$$$$

     RDKit          3D

 58 62  0  0  0  0  0  0  0  0999 V2000
  -77.0396  -18.2733   86.8997 N   0  0  0  0  0  0  0  0  0  0  0  0
  -82.3746  -22.9156   86.8057 N   0  0  0  0  0  0  0  0  0  0  0  0
  -76.2065  -18.8393   90.4287 C   0  0  0  0  0  0  0  0  0  0  0  0
  -76.9992  -19.3972   91.5665 C   0  0  0  0  0  0  0  0  0  0  0  0
  -77.0355  -19.6928   94.0180 C   0  0  0  0  0  0  0  0  0  0  0  0
  -77.3265  -18.8955   95.1228 C   0  0  0  0  0  0  0  0  0  0  0  0
  -77.7360  -19.4878   96.3099 C   0  0  0  0  0  0  0  0  0  0  0  0
  -77.8538  -20.8692   96.3994 C   0  0  0  0  0  0  0  0  0  0  0  0
  -76.9240  -18.7627   89.2427 C   0  0  0  0  0  0  0  0  0  0  0  0
  -77.8462  -19.0112   86.0909 C   0  0  0  0  0  0  0  0  0  0  0  0
  -80.6011  -21.2785   86.7781 C   0  0  0  0  0  0  0  0  0  0  0  0
  -82.3499  -22.8815   88.1422 C   0  0  0  0  0  0  0  0  0  0  0  0
  -81.5113  -22.1260   86.1536 C   0  0  0  0  0  0  0  0  0  0  0  0
  -79.0749  -19.3977   84.0980 C   0  0  0  0  0  0  0  0  0  0  0  0
  -77.4489  -17.9528   83.6560 C   0  0  0  0  0  0  0  0  0  0  0  0
  -76.5967  -19.0917   92.8149 N   0  0  0  0  0  0  0  0  0  0  0  0
  -74.2186  -17.8173   86.7246 C   0  0  0  0  0  0  0  0  0  0  0  0
  -77.9862  -18.6286   97.3590 O   0  0  0  0  0  0  0  0  0  0  0  0
  -74.9273  -18.1635   88.0130 C   0  0  0  0  0  0  0  0  0  0  0  0
  -77.6292  -21.6444   95.2747 C   0  0  0  0  0  0  0  0  0  0  0  0
  -77.2644  -21.0580   94.0758 C   0  0  0  0  0  0  0  0  0  0  0  0
  -76.3026  -18.4775   88.0293 C   0  0  0  0  0  0  0  0  0  0  0  0
  -79.6611  -20.4332   86.0121 C   0  0  0  0  0  0  0  0  0  0  0  0
  -80.6065  -21.2725   88.1692 C   0  0  0  0  0  0  0  0  0  0  0  0
  -81.4882  -22.0806   88.8624 C   0  0  0  0  0  0  0  0  0  0  0  0
  -74.2399  -18.1618   89.2284 C   0  0  0  0  0  0  0  0  0  0  0  0
  -78.0307  -18.6978   84.7072 C   0  0  0  0  0  0  0  0  0  0  0  0
  -79.9557  -19.5324   81.7346 C   0  0  0  0  0  0  0  0  0  0  0  0
  -74.8585  -18.5142   90.4162 C   0  0  0  0  0  0  0  0  0  0  0  0
  -77.3885  -17.3237   97.2920 C   0  0  0  0  0  0  0  0  0  0  0  0
  -78.6537  -19.8767   86.7131 N   0  0  0  0  0  0  0  0  0  0  0  0
  -79.9018  -20.2553   84.7033 N   0  0  0  0  0  0  0  0  0  0  0  0
  -78.0601  -18.1804   82.5110 N   0  0  0  0  0  0  0  0  0  0  0  0
  -79.0633  -19.0658   82.7863 N   0  0  0  0  0  0  0  0  0  0  0  0
  -78.0007  -20.0714   91.3482 O   0  0  0  0  0  0  0  0  0  0  0  0
  -76.9652  -17.2998   86.5716 H   0  0  0  0  0  0  0  0  0  0  0  0
  -77.2323  -17.8016   95.0549 H   0  0  0  0  0  0  0  0  0  0  0  0
  -78.1231  -21.3426   97.3551 H   0  0  0  0  0  0  0  0  0  0  0  0
  -78.0108  -18.9314   89.2618 H   0  0  0  0  0  0  0  0  0  0  0  0
  -83.0514  -23.5239   88.6947 H   0  0  0  0  0  0  0  0  0  0  0  0
  -81.5225  -22.1490   85.0539 H   0  0  0  0  0  0  0  0  0  0  0  0
  -76.5950  -17.2703   83.7782 H   0  0  0  0  0  0  0  0  0  0  0  0
  -75.8961  -18.3418   92.9030 H   0  0  0  0  0  0  0  0  0  0  0  0
  -73.2518  -17.3450   86.9534 H   0  0  0  0  0  0  0  0  0  0  0  0
  -74.0497  -18.7344   86.1412 H   0  0  0  0  0  0  0  0  0  0  0  0
  -74.8381  -17.1203   86.1412 H   0  0  0  0  0  0  0  0  0  0  0  0
  -77.7418  -22.7369   95.3347 H   0  0  0  0  0  0  0  0  0  0  0  0
  -77.1564  -21.6741   93.1710 H   0  0  0  0  0  0  0  0  0  0  0  0
  -79.9081  -20.6238   88.7184 H   0  0  0  0  0  0  0  0  0  0  0  0
  -81.5022  -22.0849   89.9623 H   0  0  0  0  0  0  0  0  0  0  0  0
  -73.1787  -17.8728   89.2428 H   0  0  0  0  0  0  0  0  0  0  0  0
  -80.8442  -19.9970   82.1869 H   0  0  0  0  0  0  0  0  0  0  0  0
  -80.2646  -18.6804   81.1111 H   0  0  0  0  0  0  0  0  0  0  0  0
  -79.4323  -20.2722   81.1111 H   0  0  0  0  0  0  0  0  0  0  0  0
  -74.2796  -18.5363   91.3513 H   0  0  0  0  0  0  0  0  0  0  0  0
  -77.2158  -16.9467   98.3108 H   0  0  0  0  0  0  0  0  0  0  0  0
  -76.4295  -17.3867   96.7569 H   0  0  0  0  0  0  0  0  0  0  0  0
  -78.0626  -16.6387   96.7569 H   0  0  0  0  0  0  0  0  0  0  0  0
  1 10  1  0
  1 22  1  0
  2 12  2  0
  2 13  1  0
  3  4  1  0
  3  9  2  0
  3 29  1  0
  4 16  1  0
  4 35  2  0
  5  6  2  0
  5 16  1  0
  5 21  1  0
  6  7  1  0
  7  8  2  0
  7 18  1  0
  8 20  1  0
  9 22  1  0
 10 27  2  0
 10 31  1  0
 11 13  2  0
 11 23  1  0
 11 24  1  0
 12 25  1  0
 14 27  1  0
 14 32  2  0
 14 34  1  0
 15 27  1  0
 15 33  2  0
 17 19  1  0
 18 30  1  0
 19 22  2  0
 19 26  1  0
 20 21  2  0
 23 31  2  0
 23 32  1  0
 24 25  2  0
 26 29  2  0
 28 34  1  0
 33 34  1  0
  1 36  1  0
  6 37  1  0
  8 38  1  0
  9 39  1  0
 12 40  1  0
 13 41  1  0
 15 42  1  0
 16 43  1  0
 17 44  1  0
 17 45  1  0
 17 46  1  0
 20 47  1  0
 21 48  1  0
 24 49  1  0
 25 50  1  0
 26 51  1  0
 28 52  1  0
 28 53  1  0
 28 54  1  0
 29 55  1  0
 30 56  1  0
 30 57  1  0
 30 58  1  0
M  END
>  <filename_input>  (17) 
8BOM_QU6_docked.sdf

>  <pdb_id>  (17) 
8BOM_QU6

>  <pose_rank>  (17) 
16

>  <num_atoms_heavy>  (17) 
35

>  <num_torsions>  (17) 
6

>  <pose>  (17) 
[-76.20648882088679, -18.83934298553253, 90.42865096253902, 0.45433468873280664, -1.1126536342826991, -4.096169683378878, -5.736464471004725, -2.737929321616541, 2.5802343679853754, -2.206445966523843, 0.23847971548747063, -2.8100722658661037]

>  <energy>  (17) 
-629.9546200932084

>  <inter_energy>  (17) 
-632.8755426372799

>  <intra_energy>  (17) 
16.860743805118915

>  <rmsd>  (17) 
8.35712

>  <sdf_rank>  (17) 
0

$$$$

     RDKit          3D

 58 62  0  0  0  0  0  0  0  0999 V2000
  -77.3138  -19.8813   88.1746 N   0  0  0  0  0  0  0  0  0  0  0  0
  -80.1121  -18.4283   81.8809 N   0  0  0  0  0  0  0  0  0  0  0  0
  -76.2291  -19.1133   91.5953 C   0  0  0  0  0  0  0  0  0  0  0  0
  -76.2970  -17.8612   92.4088 C   0  0  0  0  0  0  0  0  0  0  0  0
  -75.9890  -15.4122   92.3320 C   0  0  0  0  0  0  0  0  0  0  0  0
  -77.0830  -14.6633   92.7601 C   0  0  0  0  0  0  0  0  0  0  0  0
  -76.8826  -13.4023   93.3054 C   0  0  0  0  0  0  0  0  0  0  0  0
  -75.5981  -12.8858   93.4228 C   0  0  0  0  0  0  0  0  0  0  0  0
  -76.7288  -18.9623   90.3090 C   0  0  0  0  0  0  0  0  0  0  0  0
  -78.4584  -19.9428   87.4429 C   0  0  0  0  0  0  0  0  0  0  0  0
  -79.1795  -19.2520   83.9493 C   0  0  0  0  0  0  0  0  0  0  0  0
  -78.8745  -18.3648   81.3786 C   0  0  0  0  0  0  0  0  0  0  0  0
  -80.2436  -18.8633   83.1408 C   0  0  0  0  0  0  0  0  0  0  0  0
  -80.5621  -20.8761   86.8649 C   0  0  0  0  0  0  0  0  0  0  0  0
  -80.1228  -21.3817   88.9810 C   0  0  0  0  0  0  0  0  0  0  0  0
  -76.1940  -16.6878   91.7558 N   0  0  0  0  0  0  0  0  0  0  0  0
  -76.7661  -22.5573   89.0327 C   0  0  0  0  0  0  0  0  0  0  0  0
  -78.0192  -12.7211   93.6867 O   0  0  0  0  0  0  0  0  0  0  0  0
  -76.5722  -21.3448   89.9128 C   0  0  0  0  0  0  0  0  0  0  0  0
  -74.5156  -13.6680   93.0583 C   0  0  0  0  0  0  0  0  0  0  0  0
  -74.7046  -14.9431   92.5560 C   0  0  0  0  0  0  0  0  0  0  0  0
  -76.9515  -20.0575   89.4779 C   0  0  0  0  0  0  0  0  0  0  0  0
  -79.3768  -19.7159   85.3388 C   0  0  0  0  0  0  0  0  0  0  0  0
  -77.9083  -19.1707   83.3901 C   0  0  0  0  0  0  0  0  0  0  0  0
  -77.7496  -18.7232   82.0918 C   0  0  0  0  0  0  0  0  0  0  0  0
  -75.9917  -21.4661   91.1769 C   0  0  0  0  0  0  0  0  0  0  0  0
  -79.5816  -20.7305   87.8490 C   0  0  0  0  0  0  0  0  0  0  0  0
  -82.8429  -21.9596   86.8043 C   0  0  0  0  0  0  0  0  0  0  0  0
  -75.8403  -20.3758   92.0171 C   0  0  0  0  0  0  0  0  0  0  0  0
  -78.0021  -11.2912   93.5469 C   0  0  0  0  0  0  0  0  0  0  0  0
  -78.3811  -19.4431   86.2048 N   0  0  0  0  0  0  0  0  0  0  0  0
  -80.4990  -20.3978   85.6186 N   0  0  0  0  0  0  0  0  0  0  0  0
  -81.3217  -21.8666   88.7282 N   0  0  0  0  0  0  0  0  0  0  0  0
  -81.5877  -21.5587   87.4241 N   0  0  0  0  0  0  0  0  0  0  0  0
  -76.4826  -17.9221   93.6201 O   0  0  0  0  0  0  0  0  0  0  0  0
  -76.5036  -19.6362   87.5877 H   0  0  0  0  0  0  0  0  0  0  0  0
  -78.1011  -15.0693   92.6665 H   0  0  0  0  0  0  0  0  0  0  0  0
  -75.4428  -11.8650   93.8018 H   0  0  0  0  0  0  0  0  0  0  0  0
  -76.9546  -17.9521   89.9367 H   0  0  0  0  0  0  0  0  0  0  0  0
  -78.7472  -18.0092   80.3454 H   0  0  0  0  0  0  0  0  0  0  0  0
  -81.2576  -18.9167   83.5637 H   0  0  0  0  0  0  0  0  0  0  0  0
  -79.6088  -21.4721   89.9493 H   0  0  0  0  0  0  0  0  0  0  0  0
  -76.2728  -16.7228   90.7294 H   0  0  0  0  0  0  0  0  0  0  0  0
  -76.9085  -23.4482   89.6619 H   0  0  0  0  0  0  0  0  0  0  0  0
  -77.6523  -22.4114   88.3976 H   0  0  0  0  0  0  0  0  0  0  0  0
  -75.8785  -22.6950   88.3976 H   0  0  0  0  0  0  0  0  0  0  0  0
  -73.4954  -13.2718   93.1692 H   0  0  0  0  0  0  0  0  0  0  0  0
  -73.8376  -15.5829   92.3350 H   0  0  0  0  0  0  0  0  0  0  0  0
  -77.0283  -19.4630   83.9818 H   0  0  0  0  0  0  0  0  0  0  0  0
  -76.7498  -18.6545   81.6382 H   0  0  0  0  0  0  0  0  0  0  0  0
  -75.6454  -22.4541   91.5144 H   0  0  0  0  0  0  0  0  0  0  0  0
  -83.5795  -22.1949   87.5867 H   0  0  0  0  0  0  0  0  0  0  0  0
  -83.2220  -21.1378   86.1790 H   0  0  0  0  0  0  0  0  0  0  0  0
  -82.6754  -22.8490   86.1790 H   0  0  0  0  0  0  0  0  0  0  0  0
  -75.4108  -20.5114   93.0207 H   0  0  0  0  0  0  0  0  0  0  0  0
  -77.9965  -10.8254   94.5434 H   0  0  0  0  0  0  0  0  0  0  0  0
  -77.1002  -10.9875   92.9952 H   0  0  0  0  0  0  0  0  0  0  0  0
  -78.8964  -10.9659   92.9952 H   0  0  0  0  0  0  0  0  0  0  0  0
  1 10  1  0
  1 22  1  0
  2 12  2  0
  2 13  1  0
  3  4  1  0
  3  9  2  0
  3 29  1  0
  4 16  1  0
  4 35  2  0
  5  6  2  0
  5 16  1  0
  5 21  1  0
  6  7  1  0
  7  8  2  0
  7 18  1  0
  8 20  1  0
  9 22  1  0
 10 27  2  0
 10 31  1  0
 11 13  2  0
 11 23  1  0
 11 24  1  0
 12 25  1  0
 14 27  1  0
 14 32  2  0
 14 34  1  0
 15 27  1  0
 15 33  2  0
 17 19  1  0
 18 30  1  0
 19 22  2  0
 19 26  1  0
 20 21  2  0
 23 31  2  0
 23 32  1  0
 24 25  2  0
 26 29  2  0
 28 34  1  0
 33 34  1  0
  1 36  1  0
  6 37  1  0
  8 38  1  0
  9 39  1  0
 12 40  1  0
 13 41  1  0
 15 42  1  0
 16 43  1  0
 17 44  1  0
 17 45  1  0
 17 46  1  0
 20 47  1  0
 21 48  1  0
 24 49  1  0
 25 50  1  0
 26 51  1  0
 28 52  1  0
 28 53  1  0
 28 54  1  0
 29 55  1  0
 30 56  1  0
 30 57  1  0
 30 58  1  0
M  END
>  <filename_input>  (18) 
8BOM_QU6_docked.sdf

>  <pdb_id>  (18) 
8BOM_QU6

>  <pose_rank>  (18) 
17

>  <num_atoms_heavy>  (18) 
35

>  <num_torsions>  (18) 
6

>  <pose>  (18) 
[-76.22913066971357, -19.113312674420516, 91.59532828975576, -0.15561202757883652, 0.9697597063745835, 0.21965851491064292, 2.7552827904649835, -1.8695237797128468, 0.38146665861777945, 3.468991800922896, 2.475222353129457, -2.4926762440672023]

>  <energy>  (18) 
-656.8756975334201

>  <inter_energy>  (18) 
-661.4085788254916

>  <intra_energy>  (18) 
11.227565680370365

>  <rmsd>  (18) 
8.78348

>  <sdf_rank>  (18) 
0

$$$$

     RDKit          3D

 58 62  0  0  0  0  0  0  0  0999 V2000
  -78.7393  -19.9680   85.3346 N   0  0  0  0  0  0  0  0  0  0  0  0
  -84.3931  -19.9779   88.4705 N   0  0  0  0  0  0  0  0  0  0  0  0
  -76.4955  -18.4309   87.7985 C   0  0  0  0  0  0  0  0  0  0  0  0
  -75.8914  -17.0665   87.8870 C   0  0  0  0  0  0  0  0  0  0  0  0
  -75.7382  -15.0389   89.2883 C   0  0  0  0  0  0  0  0  0  0  0  0
  -74.4348  -14.5623   89.1652 C   0  0  0  0  0  0  0  0  0  0  0  0
  -74.1654  -13.2234   89.4150 C   0  0  0  0  0  0  0  0  0  0  0  0
  -75.1885  -12.3607   89.7885 C   0  0  0  0  0  0  0  0  0  0  0  0
  -77.2726  -18.6167   86.6632 C   0  0  0  0  0  0  0  0  0  0  0  0
  -80.0053  -19.8385   84.8554 C   0  0  0  0  0  0  0  0  0  0  0  0
  -83.2684  -20.3543   86.3683 C   0  0  0  0  0  0  0  0  0  0  0  0
  -85.1523  -21.0512   88.2267 C   0  0  0  0  0  0  0  0  0  0  0  0
  -83.4770  -19.6497   87.5502 C   0  0  0  0  0  0  0  0  0  0  0  0
  -81.6745  -18.8143   83.5155 C   0  0  0  0  0  0  0  0  0  0  0  0
  -79.6919  -18.4149   82.6011 C   0  0  0  0  0  0  0  0  0  0  0  0
  -76.0098  -16.4076   89.0556 N   0  0  0  0  0  0  0  0  0  0  0  0
  -78.8999  -21.9989   87.3462 C   0  0  0  0  0  0  0  0  0  0  0  0
  -72.8475  -12.8383   89.2882 O   0  0  0  0  0  0  0  0  0  0  0  0
  -78.0557  -20.7539   87.4860 C   0  0  0  0  0  0  0  0  0  0  0  0
  -76.4893  -12.8314   89.8392 C   0  0  0  0  0  0  0  0  0  0  0  0
  -76.7723  -14.1540   89.5478 C   0  0  0  0  0  0  0  0  0  0  0  0
  -78.0884  -19.7352   86.5107 C   0  0  0  0  0  0  0  0  0  0  0  0
  -82.2496  -19.9448   85.3786 C   0  0  0  0  0  0  0  0  0  0  0  0
  -84.0787  -21.4641   86.1516 C   0  0  0  0  0  0  0  0  0  0  0  0
  -85.0316  -21.8198   87.0877 C   0  0  0  0  0  0  0  0  0  0  0  0
  -77.2030  -20.5889   88.5793 C   0  0  0  0  0  0  0  0  0  0  0  0
  -80.3091  -19.0336   83.7123 C   0  0  0  0  0  0  0  0  0  0  0  0
  -83.0275  -17.6569   81.7240 C   0  0  0  0  0  0  0  0  0  0  0  0
  -76.4498  -19.4394   88.7492 C   0  0  0  0  0  0  0  0  0  0  0  0
  -72.5824  -11.6632   88.5048 C   0  0  0  0  0  0  0  0  0  0  0  0
  -80.9765  -20.2864   85.6583 N   0  0  0  0  0  0  0  0  0  0  0  0
  -82.6596  -19.2401   84.3119 N   0  0  0  0  0  0  0  0  0  0  0  0
  -80.5844  -17.8815   81.7917 N   0  0  0  0  0  0  0  0  0  0  0  0
  -81.8032  -18.1241   82.3589 N   0  0  0  0  0  0  0  0  0  0  0  0
  -75.2781  -16.6006   86.9320 O   0  0  0  0  0  0  0  0  0  0  0  0
  -78.1010  -20.3421   84.6179 H   0  0  0  0  0  0  0  0  0  0  0  0
  -73.6229  -15.2437   88.8713 H   0  0  0  0  0  0  0  0  0  0  0  0
  -74.9668  -11.3134   90.0417 H   0  0  0  0  0  0  0  0  0  0  0  0
  -77.2432  -17.8615   85.8640 H   0  0  0  0  0  0  0  0  0  0  0  0
  -85.9105  -21.3353   88.9712 H   0  0  0  0  0  0  0  0  0  0  0  0
  -82.8492  -18.7668   87.7408 H   0  0  0  0  0  0  0  0  0  0  0  0
  -78.6052  -18.3830   82.4335 H   0  0  0  0  0  0  0  0  0  0  0  0
  -76.3318  -16.9577   89.8647 H   0  0  0  0  0  0  0  0  0  0  0  0
  -79.1586  -22.3805   88.3450 H   0  0  0  0  0  0  0  0  0  0  0  0
  -79.8213  -21.7573   86.7960 H   0  0  0  0  0  0  0  0  0  0  0  0
  -78.3345  -22.7654   86.7960 H   0  0  0  0  0  0  0  0  0  0  0  0
  -77.3059  -12.1474   90.1137 H   0  0  0  0  0  0  0  0  0  0  0  0
  -77.8154  -14.5021   89.5223 H   0  0  0  0  0  0  0  0  0  0  0  0
  -83.9610  -22.0594   85.2341 H   0  0  0  0  0  0  0  0  0  0  0  0
  -85.6784  -22.6952   86.9281 H   0  0  0  0  0  0  0  0  0  0  0  0
  -77.1275  -21.3935   89.3256 H   0  0  0  0  0  0  0  0  0  0  0  0
  -83.7583  -17.3780   82.4974 H   0  0  0  0  0  0  0  0  0  0  0  0
  -82.8044  -16.7807   81.0974 H   0  0  0  0  0  0  0  0  0  0  0  0
  -83.4448  -18.4590   81.0974 H   0  0  0  0  0  0  0  0  0  0  0  0
  -75.8142  -19.3260   89.6398 H   0  0  0  0  0  0  0  0  0  0  0  0
  -72.3904  -10.8118   89.1743 H   0  0  0  0  0  0  0  0  0  0  0  0
  -71.7009  -11.8368   87.8702 H   0  0  0  0  0  0  0  0  0  0  0  0
  -73.4532  -11.4415   87.8702 H   0  0  0  0  0  0  0  0  0  0  0  0
  1 10  1  0
  1 22  1  0
  2 12  2  0
  2 13  1  0
  3  4  1  0
  3  9  2  0
  3 29  1  0
  4 16  1  0
  4 35  2  0
  5  6  2  0
  5 16  1  0
  5 21  1  0
  6  7  1  0
  7  8  2  0
  7 18  1  0
  8 20  1  0
  9 22  1  0
 10 27  2  0
 10 31  1  0
 11 13  2  0
 11 23  1  0
 11 24  1  0
 12 25  1  0
 14 27  1  0
 14 32  2  0
 14 34  1  0
 15 27  1  0
 15 33  2  0
 17 19  1  0
 18 30  1  0
 19 22  2  0
 19 26  1  0
 20 21  2  0
 23 31  2  0
 23 32  1  0
 24 25  2  0
 26 29  2  0
 28 34  1  0
 33 34  1  0
  1 36  1  0
  6 37  1  0
  8 38  1  0
  9 39  1  0
 12 40  1  0
 13 41  1  0
 15 42  1  0
 16 43  1  0
 17 44  1  0
 17 45  1  0
 17 46  1  0
 20 47  1  0
 21 48  1  0
 24 49  1  0
 25 50  1  0
 26 51  1  0
 28 52  1  0
 28 53  1  0
 28 54  1  0
 29 55  1  0
 30 56  1  0
 30 57  1  0
 30 58  1  0
M  END
>  <filename_input>  (19) 
8BOM_QU6_docked.sdf

>  <pdb_id>  (19) 
8BOM_QU6

>  <pose_rank>  (19) 
18

>  <num_atoms_heavy>  (19) 
35

>  <num_torsions>  (19) 
6

>  <pose>  (19) 
[-76.4955303585832, -18.430900029048672, 87.79851475993131, 1.3712776588265312, -4.509448576615327, 1.459654922502099, -0.6925593756019988, -1.4958383848730508, -1.0542772683202102, -46.82491869269769, -45.23213335313035, -4.802916712008871]

>  <energy>  (19) 
-619.2970115147253

>  <inter_energy>  (19) 
-631.7237748459523

>  <intra_energy>  (19) 
19.189720419655693

>  <rmsd>  (19) 
8.64615

>  <sdf_rank>  (19) 
0

$$$$

     RDKit          3D

 58 62  0  0  0  0  0  0  0  0999 V2000
  -76.9706  -19.3306   86.1394 N   0  0  0  0  0  0  0  0  0  0  0  0
  -83.9121  -20.2035   86.5369 N   0  0  0  0  0  0  0  0  0  0  0  0
  -75.8855  -18.1241   89.4310 C   0  0  0  0  0  0  0  0  0  0  0  0
  -75.7892  -16.7497   90.0107 C   0  0  0  0  0  0  0  0  0  0  0  0
  -74.4524  -15.2998   91.4970 C   0  0  0  0  0  0  0  0  0  0  0  0
  -74.8997  -15.3140   92.8164 C   0  0  0  0  0  0  0  0  0  0  0  0
  -74.7143  -14.1954   93.6177 C   0  0  0  0  0  0  0  0  0  0  0  0
  -74.0879  -13.0647   93.1083 C   0  0  0  0  0  0  0  0  0  0  0  0
  -76.3183  -18.1365   88.1121 C   0  0  0  0  0  0  0  0  0  0  0  0
  -78.0792  -19.4760   85.3652 C   0  0  0  0  0  0  0  0  0  0  0  0
  -81.5315  -20.2944   86.1491 C   0  0  0  0  0  0  0  0  0  0  0  0
  -83.7536  -21.0626   87.5493 C   0  0  0  0  0  0  0  0  0  0  0  0
  -82.8147  -19.8390   85.8612 C   0  0  0  0  0  0  0  0  0  0  0  0
  -79.4649  -18.9338   83.5169 C   0  0  0  0  0  0  0  0  0  0  0  0
  -77.3790  -18.3519   83.0301 C   0  0  0  0  0  0  0  0  0  0  0  0
  -74.6608  -16.4308   90.6733 N   0  0  0  0  0  0  0  0  0  0  0  0
  -76.8560  -21.8596   87.4764 C   0  0  0  0  0  0  0  0  0  0  0  0
  -75.2024  -14.2859   94.9042 O   0  0  0  0  0  0  0  0  0  0  0  0
  -76.5090  -20.5492   88.1431 C   0  0  0  0  0  0  0  0  0  0  0  0
  -73.5863  -13.0891   91.8182 C   0  0  0  0  0  0  0  0  0  0  0  0
  -73.7273  -14.2162   91.0283 C   0  0  0  0  0  0  0  0  0  0  0  0
  -76.6779  -19.3200   87.4717 C   0  0  0  0  0  0  0  0  0  0  0  0
  -80.3524  -19.8689   85.3656 C   0  0  0  0  0  0  0  0  0  0  0  0
  -81.4089  -21.1870   87.2089 C   0  0  0  0  0  0  0  0  0  0  0  0
  -82.5287  -21.5778   87.9191 C   0  0  0  0  0  0  0  0  0  0  0  0
  -75.9911  -20.5232   89.4396 C   0  0  0  0  0  0  0  0  0  0  0  0
  -78.1782  -18.8996   84.0595 C   0  0  0  0  0  0  0  0  0  0  0  0
  -80.4487  -18.2738   81.2861 C   0  0  0  0  0  0  0  0  0  0  0  0
  -75.7030  -19.3328   90.0858 C   0  0  0  0  0  0  0  0  0  0  0  0
  -76.4143  -15.0346   95.0922 C   0  0  0  0  0  0  0  0  0  0  0  0
  -79.1604  -19.9575   85.9877 N   0  0  0  0  0  0  0  0  0  0  0  0
  -80.5605  -19.3968   84.1261 N   0  0  0  0  0  0  0  0  0  0  0  0
  -78.0946  -18.0889   81.9554 N   0  0  0  0  0  0  0  0  0  0  0  0
  -79.3785  -18.4430   82.2590 N   0  0  0  0  0  0  0  0  0  0  0  0
  -76.6985  -15.9437   89.8409 O   0  0  0  0  0  0  0  0  0  0  0  0
  -76.1261  -19.1910   85.5665 H   0  0  0  0  0  0  0  0  0  0  0  0
  -75.3975  -16.2073   93.2215 H   0  0  0  0  0  0  0  0  0  0  0  0
  -73.9914  -12.1585   93.7244 H   0  0  0  0  0  0  0  0  0  0  0  0
  -76.3789  -17.1878   87.5587 H   0  0  0  0  0  0  0  0  0  0  0  0
  -84.6440  -21.3737   88.1152 H   0  0  0  0  0  0  0  0  0  0  0  0
  -82.9354  -19.1345   85.0250 H   0  0  0  0  0  0  0  0  0  0  0  0
  -76.2977  -18.1686   83.1154 H   0  0  0  0  0  0  0  0  0  0  0  0
  -73.8665  -17.0783   90.5694 H   0  0  0  0  0  0  0  0  0  0  0  0
  -77.0574  -22.6201   88.2452 H   0  0  0  0  0  0  0  0  0  0  0  0
  -77.7499  -21.7265   86.8493 H   0  0  0  0  0  0  0  0  0  0  0  0
  -76.0134  -22.1864   86.8493 H   0  0  0  0  0  0  0  0  0  0  0  0
  -73.0708  -12.2039   91.4174 H   0  0  0  0  0  0  0  0  0  0  0  0
  -73.2650  -14.2518   90.0308 H   0  0  0  0  0  0  0  0  0  0  0  0
  -80.4195  -21.5824   87.4823 H   0  0  0  0  0  0  0  0  0  0  0  0
  -82.4449  -22.2829   88.7592 H   0  0  0  0  0  0  0  0  0  0  0  0
  -75.8071  -21.4738   89.9617 H   0  0  0  0  0  0  0  0  0  0  0  0
  -81.4025  -18.1229   81.8128 H   0  0  0  0  0  0  0  0  0  0  0  0
  -80.2356  -17.3982   80.6553 H   0  0  0  0  0  0  0  0  0  0  0  0
  -80.5162  -19.1724   80.6553 H   0  0  0  0  0  0  0  0  0  0  0  0
  -75.3289  -19.3460   91.1201 H   0  0  0  0  0  0  0  0  0  0  0  0
  -76.6081  -15.1544   96.1683 H   0  0  0  0  0  0  0  0  0  0  0  0
  -77.2533  -14.4973   94.6261 H   0  0  0  0  0  0  0  0  0  0  0  0
  -76.3092  -16.0254   94.6261 H   0  0  0  0  0  0  0  0  0  0  0  0
  1 10  1  0
  1 22  1  0
  2 12  2  0
  2 13  1  0
  3  4  1  0
  3  9  2  0
  3 29  1  0
  4 16  1  0
  4 35  2  0
  5  6  2  0
  5 16  1  0
  5 21  1  0
  6  7  1  0
  7  8  2  0
  7 18  1  0
  8 20  1  0
  9 22  1  0
 10 27  2  0
 10 31  1  0
 11 13  2  0
 11 23  1  0
 11 24  1  0
 12 25  1  0
 14 27  1  0
 14 32  2  0
 14 34  1  0
 15 27  1  0
 15 33  2  0
 17 19  1  0
 18 30  1  0
 19 22  2  0
 19 26  1  0
 20 21  2  0
 23 31  2  0
 23 32  1  0
 24 25  2  0
 26 29  2  0
 28 34  1  0
 33 34  1  0
  1 36  1  0
  6 37  1  0
  8 38  1  0
  9 39  1  0
 12 40  1  0
 13 41  1  0
 15 42  1  0
 16 43  1  0
 17 44  1  0
 17 45  1  0
 17 46  1  0
 20 47  1  0
 21 48  1  0
 24 49  1  0
 25 50  1  0
 26 51  1  0
 28 52  1  0
 28 53  1  0
 28 54  1  0
 29 55  1  0
 30 56  1  0
 30 57  1  0
 30 58  1  0
M  END
>  <filename_input>  (20) 
8BOM_QU6_docked.sdf

>  <pdb_id>  (20) 
8BOM_QU6

>  <pose_rank>  (20) 
19

>  <num_atoms_heavy>  (20) 
35

>  <num_torsions>  (20) 
6

>  <pose>  (20) 
[-75.88552021841615, -18.124076717057143, 89.43100300674448, 1.3424281101328752, -5.125221068198022, 0.030289920000183122, 0.9821348365714845, 1.0691647658046888, 2.3298715995242834, -2.941367930646433, -0.7085370829168849, 2.8310993875872494]

>  <energy>  (20) 
-644.3583890880828

>  <inter_energy>  (20) 
-650.5101143002205

>  <intra_energy>  (20) 
10.215274507737202

>  <rmsd>  (20) 
8.85107

>  <sdf_rank>  (20) 
0

$$$$

     RDKit          3D

 58 62  0  0  0  0  0  0  0  0999 V2000
  -85.4544  -21.7517   94.2517 N   0  0  0  0  0  0  0  0  0  0  0  0
  -81.3966  -21.5418   88.4713 N   0  0  0  0  0  0  0  0  0  0  0  0
  -86.9959  -18.4213   94.2623 C   0  0  0  0  0  0  0  0  0  0  0  0
  -87.3308  -17.4706   93.1585 C   0  0  0  0  0  0  0  0  0  0  0  0
  -87.8302  -17.3103   90.7454 C   0  0  0  0  0  0  0  0  0  0  0  0
  -87.0166  -17.6661   89.6718 C   0  0  0  0  0  0  0  0  0  0  0  0
  -87.1231  -16.9784   88.4704 C   0  0  0  0  0  0  0  0  0  0  0  0
  -88.0343  -15.9381   88.3370 C   0  0  0  0  0  0  0  0  0  0  0  0
  -86.3753  -19.5817   93.8204 C   0  0  0  0  0  0  0  0  0  0  0  0
  -84.2019  -21.9817   93.7747 C   0  0  0  0  0  0  0  0  0  0  0  0
  -82.6871  -21.4809   90.5101 C   0  0  0  0  0  0  0  0  0  0  0  0
  -82.4282  -20.9801   87.8323 C   0  0  0  0  0  0  0  0  0  0  0  0
  -81.5403  -21.7815   89.7811 C   0  0  0  0  0  0  0  0  0  0  0  0
  -81.8390  -22.0776   93.9706 C   0  0  0  0  0  0  0  0  0  0  0  0
  -82.7252  -22.3125   95.9921 C   0  0  0  0  0  0  0  0  0  0  0  0
  -87.7068  -17.9957   91.9767 N   0  0  0  0  0  0  0  0  0  0  0  0
  -86.3224  -21.7194   96.9798 C   0  0  0  0  0  0  0  0  0  0  0  0
  -86.2692  -17.3816   87.4656 O   0  0  0  0  0  0  0  0  0  0  0  0
  -86.5406  -20.5707   96.0233 C   0  0  0  0  0  0  0  0  0  0  0  0
  -88.8847  -15.6410   89.3882 C   0  0  0  0  0  0  0  0  0  0  0  0
  -88.8155  -16.3515   90.5733 C   0  0  0  0  0  0  0  0  0  0  0  0
  -86.1840  -20.6746   94.6623 C   0  0  0  0  0  0  0  0  0  0  0  0
  -82.7998  -21.7749   91.9544 C   0  0  0  0  0  0  0  0  0  0  0  0
  -83.7378  -20.8980   89.8091 C   0  0  0  0  0  0  0  0  0  0  0  0
  -83.6114  -20.6432   88.4562 C   0  0  0  0  0  0  0  0  0  0  0  0
  -87.0850  -19.3646   96.4689 C   0  0  0  0  0  0  0  0  0  0  0  0
  -83.0662  -22.0945   94.6376 C   0  0  0  0  0  0  0  0  0  0  0  0
  -79.4375  -22.3518   94.7035 C   0  0  0  0  0  0  0  0  0  0  0  0
  -87.3311  -18.3120   95.6034 C   0  0  0  0  0  0  0  0  0  0  0  0
  -84.9412  -17.7700   87.8530 C   0  0  0  0  0  0  0  0  0  0  0  0
  -84.0498  -21.8352   92.4542 N   0  0  0  0  0  0  0  0  0  0  0  0
  -81.6637  -21.9184   92.6554 N   0  0  0  0  0  0  0  0  0  0  0  0
  -81.4220  -22.4338   96.1453 N   0  0  0  0  0  0  0  0  0  0  0  0
  -80.8786  -22.2839   94.9010 N   0  0  0  0  0  0  0  0  0  0  0  0
  -87.2985  -16.2601   93.3563 O   0  0  0  0  0  0  0  0  0  0  0  0
  -85.9975  -22.6240   94.3217 H   0  0  0  0  0  0  0  0  0  0  0  0
  -86.2931  -18.4882   89.7756 H   0  0  0  0  0  0  0  0  0  0  0  0
  -88.0796  -15.3560   87.4047 H   0  0  0  0  0  0  0  0  0  0  0  0
  -86.0257  -19.6396   92.7790 H   0  0  0  0  0  0  0  0  0  0  0  0
  -82.3284  -20.7765   86.7559 H   0  0  0  0  0  0  0  0  0  0  0  0
  -80.6980  -22.2456   90.3150 H   0  0  0  0  0  0  0  0  0  0  0  0
  -83.4545  -22.3731   96.8133 H   0  0  0  0  0  0  0  0  0  0  0  0
  -87.9276  -19.0018   91.9685 H   0  0  0  0  0  0  0  0  0  0  0  0
  -86.3920  -21.3532   98.0147 H   0  0  0  0  0  0  0  0  0  0  0  0
  -87.0905  -22.4885   96.8105 H   0  0  0  0  0  0  0  0  0  0  0  0
  -85.3258  -22.1532   96.8105 H   0  0  0  0  0  0  0  0  0  0  0  0
  -89.6224  -14.8322   89.2802 H   0  0  0  0  0  0  0  0  0  0  0  0
  -89.5407  -16.1557   91.3768 H   0  0  0  0  0  0  0  0  0  0  0  0
  -84.6704  -20.6395   90.3319 H   0  0  0  0  0  0  0  0  0  0  0  0
  -84.4348  -20.1826   87.8907 H   0  0  0  0  0  0  0  0  0  0  0  0
  -87.3248  -19.2474   97.5360 H   0  0  0  0  0  0  0  0  0  0  0  0
  -78.9341  -22.3755   95.6813 H   0  0  0  0  0  0  0  0  0  0  0  0
  -79.1871  -23.2628   94.1401 H   0  0  0  0  0  0  0  0  0  0  0  0
  -79.1026  -21.4685   94.1401 H   0  0  0  0  0  0  0  0  0  0  0  0
  -87.7932  -17.3877   95.9804 H   0  0  0  0  0  0  0  0  0  0  0  0
  -84.8707  -17.7906   88.9506 H   0  0  0  0  0  0  0  0  0  0  0  0
  -84.7202  -18.7704   87.4526 H   0  0  0  0  0  0  0  0  0  0  0  0
  -84.2160  -17.0463   87.4526 H   0  0  0  0  0  0  0  0  0  0  0  0
  1 10  1  0
  1 22  1  0
  2 12  2  0
  2 13  1  0
  3  4  1  0
  3  9  2  0
  3 29  1  0
  4 16  1  0
  4 35  2  0
  5  6  2  0
  5 16  1  0
  5 21  1  0
  6  7  1  0
  7  8  2  0
  7 18  1  0
  8 20  1  0
  9 22  1  0
 10 27  2  0
 10 31  1  0
 11 13  2  0
 11 23  1  0
 11 24  1  0
 12 25  1  0
 14 27  1  0
 14 32  2  0
 14 34  1  0
 15 27  1  0
 15 33  2  0
 17 19  1  0
 18 30  1  0
 19 22  2  0
 19 26  1  0
 20 21  2  0
 23 31  2  0
 23 32  1  0
 24 25  2  0
 26 29  2  0
 28 34  1  0
 33 34  1  0
  1 36  1  0
  6 37  1  0
  8 38  1  0
  9 39  1  0
 12 40  1  0
 13 41  1  0
 15 42  1  0
 16 43  1  0
 17 44  1  0
 17 45  1  0
 17 46  1  0
 20 47  1  0
 21 48  1  0
 24 49  1  0
 25 50  1  0
 26 51  1  0
 28 52  1  0
 28 53  1  0
 28 54  1  0
 29 55  1  0
 30 56  1  0
 30 57  1  0
 30 58  1  0
M  END
>  <filename_input>  (21) 
8BOM_QU6_docked.sdf

>  <pdb_id>  (21) 
8BOM_QU6

>  <pose_rank>  (21) 
20

>  <num_atoms_heavy>  (21) 
35

>  <num_torsions>  (21) 
6

>  <pose>  (21) 
[-86.99592302495175, -18.421292824779496, 94.26225629888265, 4.797136992798674, -0.331177763240421, 0.6715311911627204, 3.9070240905663023, 1.688475400414492, 2.289926278849947, -0.06276983445044018, -1.9527229590596338, -2.696063590086132]

>  <energy>  (21) 
-556.4744435280726

>  <inter_energy>  (21) 
-560.2466392287926

>  <intra_energy>  (21) 
16.558940572210616

>  <rmsd>  (21) 
8.09941

>  <sdf_rank>  (21) 
0

$$$$

     RDKit          3D

 58 62  0  0  0  0  0  0  0  0999 V2000
  -77.1964  -20.9221   90.9931 N   0  0  0  0  0  0  0  0  0  0  0  0
  -83.2788  -20.3381   87.9939 N   0  0  0  0  0  0  0  0  0  0  0  0
  -75.2768  -18.6960   88.7960 C   0  0  0  0  0  0  0  0  0  0  0  0
  -75.3229  -18.4640   87.3201 C   0  0  0  0  0  0  0  0  0  0  0  0
  -76.4187  -19.1689   85.2223 C   0  0  0  0  0  0  0  0  0  0  0  0
  -77.6590  -19.0305   84.6029 C   0  0  0  0  0  0  0  0  0  0  0  0
  -77.7593  -19.1698   83.2251 C   0  0  0  0  0  0  0  0  0  0  0  0
  -76.6301  -19.4482   82.4651 C   0  0  0  0  0  0  0  0  0  0  0  0
  -76.1659  -19.6705   89.2284 C   0  0  0  0  0  0  0  0  0  0  0  0
  -78.5069  -21.1394   91.2843 C   0  0  0  0  0  0  0  0  0  0  0  0
  -81.4754  -21.3913   89.2041 C   0  0  0  0  0  0  0  0  0  0  0  0
  -83.0829  -21.2077   86.9971 C   0  0  0  0  0  0  0  0  0  0  0  0
  -82.4826  -20.4409   89.0660 C   0  0  0  0  0  0  0  0  0  0  0  0
  -80.2710  -22.1219   92.5306 C   0  0  0  0  0  0  0  0  0  0  0  0
  -78.4570  -22.0533   93.8079 C   0  0  0  0  0  0  0  0  0  0  0  0
  -76.3193  -19.0492   86.6283 N   0  0  0  0  0  0  0  0  0  0  0  0
  -75.9255  -19.3528   93.0226 C   0  0  0  0  0  0  0  0  0  0  0  0
  -79.0250  -19.0358   82.6947 O   0  0  0  0  0  0  0  0  0  0  0  0
  -75.6994  -19.1420   91.5439 C   0  0  0  0  0  0  0  0  0  0  0  0
  -75.3937  -19.5140   83.0843 C   0  0  0  0  0  0  0  0  0  0  0  0
  -75.2793  -19.3316   84.4510 C   0  0  0  0  0  0  0  0  0  0  0  0
  -76.4257  -19.8745   90.5815 C   0  0  0  0  0  0  0  0  0  0  0  0
  -80.6160  -21.4567   90.4050 C   0  0  0  0  0  0  0  0  0  0  0  0
  -81.3032  -22.2769   88.1453 C   0  0  0  0  0  0  0  0  0  0  0  0
  -82.1130  -22.1879   87.0285 C   0  0  0  0  0  0  0  0  0  0  0  0
  -74.7471  -18.2268   91.0908 C   0  0  0  0  0  0  0  0  0  0  0  0
  -78.9247  -21.7500   92.5088 C   0  0  0  0  0  0  0  0  0  0  0  0
  -81.7939  -23.1034   94.2904 C   0  0  0  0  0  0  0  0  0  0  0  0
  -74.5502  -17.9877   89.7412 C   0  0  0  0  0  0  0  0  0  0  0  0
  -79.3153  -17.8136   81.9971 C   0  0  0  0  0  0  0  0  0  0  0  0
  -79.3581  -20.9948   90.2630 N   0  0  0  0  0  0  0  0  0  0  0  0
  -81.1345  -21.9995   91.5181 N   0  0  0  0  0  0  0  0  0  0  0  0
  -79.4188  -22.5474   94.5611 N   0  0  0  0  0  0  0  0  0  0  0  0
  -80.5326  -22.5933   93.7716 N   0  0  0  0  0  0  0  0  0  0  0  0
  -74.4982  -17.7297   86.7853 O   0  0  0  0  0  0  0  0  0  0  0  0
  -76.6358  -21.7774   91.1163 H   0  0  0  0  0  0  0  0  0  0  0  0
  -78.5547  -18.8118   85.2027 H   0  0  0  0  0  0  0  0  0  0  0  0
  -76.7177  -19.6148   81.3813 H   0  0  0  0  0  0  0  0  0  0  0  0
  -76.6783  -20.2973   88.4837 H   0  0  0  0  0  0  0  0  0  0  0  0
  -83.7271  -21.1379   86.1082 H   0  0  0  0  0  0  0  0  0  0  0  0
  -82.6346  -19.7284   89.8901 H   0  0  0  0  0  0  0  0  0  0  0  0
  -77.4223  -21.8969   94.1468 H   0  0  0  0  0  0  0  0  0  0  0  0
  -77.0897  -19.4518   87.1809 H   0  0  0  0  0  0  0  0  0  0  0  0
  -75.2379  -18.7117   93.5937 H   0  0  0  0  0  0  0  0  0  0  0  0
  -76.9641  -19.0933   93.2754 H   0  0  0  0  0  0  0  0  0  0  0  0
  -75.7391  -20.4070   93.2754 H   0  0  0  0  0  0  0  0  0  0  0  0
  -74.4937  -19.7131   82.4841 H   0  0  0  0  0  0  0  0  0  0  0  0
  -74.2863  -19.3159   84.9240 H   0  0  0  0  0  0  0  0  0  0  0  0
  -80.5216  -23.0492   88.1968 H   0  0  0  0  0  0  0  0  0  0  0  0
  -81.9869  -22.8823   86.1848 H   0  0  0  0  0  0  0  0  0  0  0  0
  -74.1371  -17.6811   91.8257 H   0  0  0  0  0  0  0  0  0  0  0  0
  -81.7690  -23.0933   95.3901 H   0  0  0  0  0  0  0  0  0  0  0  0
  -82.6196  -22.4685   93.9365 H   0  0  0  0  0  0  0  0  0  0  0  0
  -81.9461  -24.1338   93.9365 H   0  0  0  0  0  0  0  0  0  0  0  0
  -73.8163  -17.2347   89.4183 H   0  0  0  0  0  0  0  0  0  0  0  0
  -79.5058  -17.0119   82.7258 H   0  0  0  0  0  0  0  0  0  0  0  0
  -78.4574  -17.5391   81.3658 H   0  0  0  0  0  0  0  0  0  0  0  0
  -80.2051  -17.9543   81.3658 H   0  0  0  0  0  0  0  0  0  0  0  0
  1 10  1  0
  1 22  1  0
  2 12  2  0
  2 13  1  0
  3  4  1  0
  3  9  2  0
  3 29  1  0
  4 16  1  0
  4 35  2  0
  5  6  2  0
  5 16  1  0
  5 21  1  0
  6  7  1  0
  7  8  2  0
  7 18  1  0
  8 20  1  0
  9 22  1  0
 10 27  2  0
 10 31  1  0
 11 13  2  0
 11 23  1  0
 11 24  1  0
 12 25  1  0
 14 27  1  0
 14 32  2  0
 14 34  1  0
 15 27  1  0
 15 33  2  0
 17 19  1  0
 18 30  1  0
 19 22  2  0
 19 26  1  0
 20 21  2  0
 23 31  2  0
 23 32  1  0
 24 25  2  0
 26 29  2  0
 28 34  1  0
 33 34  1  0
  1 36  1  0
  6 37  1  0
  8 38  1  0
  9 39  1  0
 12 40  1  0
 13 41  1  0
 15 42  1  0
 16 43  1  0
 17 44  1  0
 17 45  1  0
 17 46  1  0
 20 47  1  0
 21 48  1  0
 24 49  1  0
 25 50  1  0
 26 51  1  0
 28 52  1  0
 28 53  1  0
 28 54  1  0
 29 55  1  0
 30 56  1  0
 30 57  1  0
 30 58  1  0
M  END
>  <filename_input>  (22) 
8BOM_QU6_docked.sdf

>  <pdb_id>  (22) 
8BOM_QU6

>  <pose_rank>  (22) 
21

>  <num_atoms_heavy>  (22) 
35

>  <num_torsions>  (22) 
6

>  <pose>  (22) 
[-75.2768239567975, -18.695996624820566, 88.79597701388924, -1.8550749200313446, 1.2588351837505505, -1.012569438702204, -2.82495896315426, -2.8289411394904547, -1.5051810412860707, -2.6762266741352856, 0.6598835596041718, -1.7352342127072102]

>  <energy>  (22) 
-577.9362983835489

>  <inter_energy>  (22) 
-562.6489887446834

>  <intra_energy>  (22) 
14.799272099982707

>  <rmsd>  (22) 
10.3958

>  <sdf_rank>  (22) 
0

$$$$

     RDKit          3D

 58 62  0  0  0  0  0  0  0  0999 V2000
  -80.7668  -21.1440   84.8805 N   0  0  0  0  0  0  0  0  0  0  0  0
  -80.6142  -21.6242   91.9238 N   0  0  0  0  0  0  0  0  0  0  0  0
  -78.5046  -18.2924   84.4132 C   0  0  0  0  0  0  0  0  0  0  0  0
  -77.2078  -17.9277   85.0610 C   0  0  0  0  0  0  0  0  0  0  0  0
  -75.0902  -18.8428   85.9421 C   0  0  0  0  0  0  0  0  0  0  0  0
  -75.1499  -19.1182   87.3065 C   0  0  0  0  0  0  0  0  0  0  0  0
  -73.9944  -19.0506   88.0732 C   0  0  0  0  0  0  0  0  0  0  0  0
  -72.7829  -18.7079   87.4858 C   0  0  0  0  0  0  0  0  0  0  0  0
  -79.0627  -19.4596   84.9165 C   0  0  0  0  0  0  0  0  0  0  0  0
  -81.5247  -21.3738   85.9859 C   0  0  0  0  0  0  0  0  0  0  0  0
  -80.7749  -21.2808   89.5401 C   0  0  0  0  0  0  0  0  0  0  0  0
  -79.3569  -21.1714   91.8780 C   0  0  0  0  0  0  0  0  0  0  0  0
  -81.2936  -21.6726   90.7706 C   0  0  0  0  0  0  0  0  0  0  0  0
  -83.5476  -21.3109   87.2247 C   0  0  0  0  0  0  0  0  0  0  0  0
  -84.0436  -21.2915   85.0613 C   0  0  0  0  0  0  0  0  0  0  0  0
  -76.2709  -18.8897   85.1644 N   0  0  0  0  0  0  0  0  0  0  0  0
  -81.9577  -20.0711   82.5083 C   0  0  0  0  0  0  0  0  0  0  0  0
  -74.1443  -19.3199   89.4172 O   0  0  0  0  0  0  0  0  0  0  0  0
  -80.7593  -19.4540   83.1903 C   0  0  0  0  0  0  0  0  0  0  0  0
  -72.7246  -18.5052   86.1176 C   0  0  0  0  0  0  0  0  0  0  0  0
  -73.8635  -18.6148   85.3397 C   0  0  0  0  0  0  0  0  0  0  0  0
  -80.1478  -20.0766   84.2987 C   0  0  0  0  0  0  0  0  0  0  0  0
  -81.5635  -21.3631   88.2926 C   0  0  0  0  0  0  0  0  0  0  0  0
  -79.4636  -20.8163   89.5346 C   0  0  0  0  0  0  0  0  0  0  0  0
  -78.7436  -20.7593   90.7133 C   0  0  0  0  0  0  0  0  0  0  0  0
  -80.2367  -18.2360   82.7508 C   0  0  0  0  0  0  0  0  0  0  0  0
  -82.9530  -21.2955   85.9608 C   0  0  0  0  0  0  0  0  0  0  0  0
  -85.9376  -21.3425   88.0414 C   0  0  0  0  0  0  0  0  0  0  0  0
  -79.1153  -17.6709   83.3344 C   0  0  0  0  0  0  0  0  0  0  0  0
  -75.4192  -19.0160   90.0064 C   0  0  0  0  0  0  0  0  0  0  0  0
  -80.8591  -21.4166   87.1451 N   0  0  0  0  0  0  0  0  0  0  0  0
  -82.9020  -21.3392   88.3944 N   0  0  0  0  0  0  0  0  0  0  0  0
  -85.1946  -21.3177   85.7023 N   0  0  0  0  0  0  0  0  0  0  0  0
  -84.8870  -21.3246   87.0332 N   0  0  0  0  0  0  0  0  0  0  0  0
  -77.0096  -16.7775   85.4393 O   0  0  0  0  0  0  0  0  0  0  0  0
  -80.6210  -22.0068   84.3370 H   0  0  0  0  0  0  0  0  0  0  0  0
  -76.1083  -19.3880   87.7742 H   0  0  0  0  0  0  0  0  0  0  0  0
  -71.8783  -18.5988   88.1021 H   0  0  0  0  0  0  0  0  0  0  0  0
  -78.6372  -19.9084   85.8262 H   0  0  0  0  0  0  0  0  0  0  0  0
  -78.7833  -21.1252   92.8155 H   0  0  0  0  0  0  0  0  0  0  0  0
  -82.3280  -22.0459   90.7978 H   0  0  0  0  0  0  0  0  0  0  0  0
  -83.9441  -21.2693   83.9660 H   0  0  0  0  0  0  0  0  0  0  0  0
  -76.4309  -19.7495   84.6203 H   0  0  0  0  0  0  0  0  0  0  0  0
  -82.6649  -20.4351   83.2682 H   0  0  0  0  0  0  0  0  0  0  0  0
  -82.4517  -19.3152   81.8801 H   0  0  0  0  0  0  0  0  0  0  0  0
  -81.6294  -20.9122   81.8801 H   0  0  0  0  0  0  0  0  0  0  0  0
  -71.7638  -18.2545   85.6445 H   0  0  0  0  0  0  0  0  0  0  0  0
  -73.7952  -18.5212   84.2458 H   0  0  0  0  0  0  0  0  0  0  0  0
  -78.9990  -20.4940   88.5910 H   0  0  0  0  0  0  0  0  0  0  0  0
  -77.7061  -20.3939   90.7221 H   0  0  0  0  0  0  0  0  0  0  0  0
  -80.7290  -17.7114   81.9187 H   0  0  0  0  0  0  0  0  0  0  0  0
  -85.4842  -21.3348   89.0436 H   0  0  0  0  0  0  0  0  0  0  0  0
  -86.5764  -20.4552   87.9210 H   0  0  0  0  0  0  0  0  0  0  0  0
  -86.5457  -22.2512   87.9210 H   0  0  0  0  0  0  0  0  0  0  0  0
  -78.7083  -16.7275   82.9416 H   0  0  0  0  0  0  0  0  0  0  0  0
  -75.3308  -19.0371   91.1026 H   0  0  0  0  0  0  0  0  0  0  0  0
  -75.7430  -18.0155   89.6838 H   0  0  0  0  0  0  0  0  0  0  0  0
  -76.1595  -19.7628   89.6838 H   0  0  0  0  0  0  0  0  0  0  0  0
  1 10  1  0
  1 22  1  0
  2 12  2  0
  2 13  1  0
  3  4  1  0
  3  9  2  0
  3 29  1  0
  4 16  1  0
  4 35  2  0
  5  6  2  0
  5 16  1  0
  5 21  1  0
  6  7  1  0
  7  8  2  0
  7 18  1  0
  8 20  1  0
  9 22  1  0
 10 27  2  0
 10 31  1  0
 11 13  2  0
 11 23  1  0
 11 24  1  0
 12 25  1  0
 14 27  1  0
 14 32  2  0
 14 34  1  0
 15 27  1  0
 15 33  2  0
 17 19  1  0
 18 30  1  0
 19 22  2  0
 19 26  1  0
 20 21  2  0
 23 31  2  0
 23 32  1  0
 24 25  2  0
 26 29  2  0
 28 34  1  0
 33 34  1  0
  1 36  1  0
  6 37  1  0
  8 38  1  0
  9 39  1  0
 12 40  1  0
 13 41  1  0
 15 42  1  0
 16 43  1  0
 17 44  1  0
 17 45  1  0
 17 46  1  0
 20 47  1  0
 21 48  1  0
 24 49  1  0
 25 50  1  0
 26 51  1  0
 28 52  1  0
 28 53  1  0
 28 54  1  0
 29 55  1  0
 30 56  1  0
 30 57  1  0
 30 58  1  0
M  END
>  <filename_input>  (23) 
8BOM_QU6_docked.sdf

>  <pdb_id>  (23) 
8BOM_QU6

>  <pose_rank>  (23) 
22

>  <num_atoms_heavy>  (23) 
35

>  <num_torsions>  (23) 
6

>  <pose>  (23) 
[-78.50457718051717, -18.292394676053583, 84.41316100510416, 0.9842463866532268, 2.0707360567176254, 2.788391442166631, -2.134742803585515, 1.057541396780312, 2.435735313320594, 0.13389703764173136, -1.783239730754602, -2.651422110096637]

>  <energy>  (23) 
-539.9601390742347

>  <inter_energy>  (23) 
-545.3915721985267

>  <intra_energy>  (23) 
4.335636871384354

>  <rmsd>  (23) 
8.94206

>  <sdf_rank>  (23) 
0

$$$$

     RDKit          3D

 58 62  0  0  0  0  0  0  0  0999 V2000
  -82.4034  -21.4393   91.7044 N   0  0  0  0  0  0  0  0  0  0  0  0
  -86.2412  -17.2768   87.6738 N   0  0  0  0  0  0  0  0  0  0  0  0
  -84.5750  -20.5902   94.5383 C   0  0  0  0  0  0  0  0  0  0  0  0
  -85.6677  -19.5822   94.6943 C   0  0  0  0  0  0  0  0  0  0  0  0
  -88.0429  -19.2918   95.3045 C   0  0  0  0  0  0  0  0  0  0  0  0
  -88.1809  -18.1682   96.1165 C   0  0  0  0  0  0  0  0  0  0  0  0
  -89.3955  -17.4970   96.1616 C   0  0  0  0  0  0  0  0  0  0  0  0
  -90.4709  -17.9428   95.4034 C   0  0  0  0  0  0  0  0  0  0  0  0
  -83.9712  -20.5592   93.2887 C   0  0  0  0  0  0  0  0  0  0  0  0
  -82.7013  -21.2296   90.3943 C   0  0  0  0  0  0  0  0  0  0  0  0
  -85.2025  -19.1751   88.7433 C   0  0  0  0  0  0  0  0  0  0  0  0
  -87.3578  -17.5322   88.3638 C   0  0  0  0  0  0  0  0  0  0  0  0
  -85.1962  -18.0913   87.8703 C   0  0  0  0  0  0  0  0  0  0  0  0
  -82.1404  -20.9814   88.1020 C   0  0  0  0  0  0  0  0  0  0  0  0
  -80.5538  -22.1772   89.0917 C   0  0  0  0  0  0  0  0  0  0  0  0
  -86.8125  -19.9894   95.2751 N   0  0  0  0  0  0  0  0  0  0  0  0
  -81.7452  -23.6556   93.3931 C   0  0  0  0  0  0  0  0  0  0  0  0
  -89.4525  -16.4066   97.0038 O   0  0  0  0  0  0  0  0  0  0  0  0
  -82.7225  -22.5723   93.7847 C   0  0  0  0  0  0  0  0  0  0  0  0
  -90.2998  -19.0181   94.5484 C   0  0  0  0  0  0  0  0  0  0  0  0
  -89.0795  -19.6645   94.4642 C   0  0  0  0  0  0  0  0  0  0  0  0
  -83.0892  -21.5557   92.8779 C   0  0  0  0  0  0  0  0  0  0  0  0
  -84.0246  -20.0511   88.9171 C   0  0  0  0  0  0  0  0  0  0  0  0
  -86.3829  -19.4075   89.4417 C   0  0  0  0  0  0  0  0  0  0  0  0
  -87.4742  -18.5801   89.2531 C   0  0  0  0  0  0  0  0  0  0  0  0
  -83.2746  -22.5387   95.0669 C   0  0  0  0  0  0  0  0  0  0  0  0
  -81.7599  -21.4857   89.3479 C   0  0  0  0  0  0  0  0  0  0  0  0
  -81.1536  -21.1066   85.7803 C   0  0  0  0  0  0  0  0  0  0  0  0
  -84.2023  -21.5792   95.4360 C   0  0  0  0  0  0  0  0  0  0  0  0
  -90.7562  -15.9736   97.4251 C   0  0  0  0  0  0  0  0  0  0  0  0
  -83.8163  -20.5295   90.1595 N   0  0  0  0  0  0  0  0  0  0  0  0
  -83.2417  -20.2681   87.8482 N   0  0  0  0  0  0  0  0  0  0  0  0
  -80.2296  -22.1201   87.8157 N   0  0  0  0  0  0  0  0  0  0  0  0
  -81.2045  -21.3797   87.2097 N   0  0  0  0  0  0  0  0  0  0  0  0
  -85.4913  -18.4215   94.3378 O   0  0  0  0  0  0  0  0  0  0  0  0
  -81.3883  -21.5362   91.8496 H   0  0  0  0  0  0  0  0  0  0  0  0
  -87.3315  -17.8143   96.7192 H   0  0  0  0  0  0  0  0  0  0  0  0
  -91.4492  -17.4461   95.4817 H   0  0  0  0  0  0  0  0  0  0  0  0
  -84.1950  -19.7264   92.6056 H   0  0  0  0  0  0  0  0  0  0  0  0
  -88.2265  -16.8740   88.2147 H   0  0  0  0  0  0  0  0  0  0  0  0
  -84.2739  -17.8907   87.3054 H   0  0  0  0  0  0  0  0  0  0  0  0
  -79.9615  -22.6966   89.8594 H   0  0  0  0  0  0  0  0  0  0  0  0
  -86.7899  -20.9045   95.7473 H   0  0  0  0  0  0  0  0  0  0  0  0
  -81.3279  -24.1182   94.2997 H   0  0  0  0  0  0  0  0  0  0  0  0
  -82.2649  -24.4204   92.7972 H   0  0  0  0  0  0  0  0  0  0  0  0
  -80.9312  -23.2172   92.7972 H   0  0  0  0  0  0  0  0  0  0  0  0
  -91.1421  -19.3618   93.9300 H   0  0  0  0  0  0  0  0  0  0  0  0
  -88.9326  -20.4721   93.7320 H   0  0  0  0  0  0  0  0  0  0  0  0
  -86.4481  -20.2508   90.1449 H   0  0  0  0  0  0  0  0  0  0  0  0
  -88.4131  -18.7532   89.7994 H   0  0  0  0  0  0  0  0  0  0  0  0
  -82.9643  -23.2946   95.8033 H   0  0  0  0  0  0  0  0  0  0  0  0
  -80.9539  -20.0370   85.6183 H   0  0  0  0  0  0  0  0  0  0  0  0
  -80.3512  -21.7030   85.3215 H   0  0  0  0  0  0  0  0  0  0  0  0
  -82.1170  -21.3734   85.3215 H   0  0  0  0  0  0  0  0  0  0  0  0
  -84.6442  -21.6015   96.4431 H   0  0  0  0  0  0  0  0  0  0  0  0
  -90.8004  -15.9590   98.5241 H   0  0  0  0  0  0  0  0  0  0  0  0
  -90.9501  -14.9628   97.0368 H   0  0  0  0  0  0  0  0  0  0  0  0
  -91.5163  -16.6676   97.0368 H   0  0  0  0  0  0  0  0  0  0  0  0
  1 10  1  0
  1 22  1  0
  2 12  2  0
  2 13  1  0
  3  4  1  0
  3  9  2  0
  3 29  1  0
  4 16  1  0
  4 35  2  0
  5  6  2  0
  5 16  1  0
  5 21  1  0
  6  7  1  0
  7  8  2  0
  7 18  1  0
  8 20  1  0
  9 22  1  0
 10 27  2  0
 10 31  1  0
 11 13  2  0
 11 23  1  0
 11 24  1  0
 12 25  1  0
 14 27  1  0
 14 32  2  0
 14 34  1  0
 15 27  1  0
 15 33  2  0
 17 19  1  0
 18 30  1  0
 19 22  2  0
 19 26  1  0
 20 21  2  0
 23 31  2  0
 23 32  1  0
 24 25  2  0
 26 29  2  0
 28 34  1  0
 33 34  1  0
  1 36  1  0
  6 37  1  0
  8 38  1  0
  9 39  1  0
 12 40  1  0
 13 41  1  0
 15 42  1  0
 16 43  1  0
 17 44  1  0
 17 45  1  0
 17 46  1  0
 20 47  1  0
 21 48  1  0
 24 49  1  0
 25 50  1  0
 26 51  1  0
 28 52  1  0
 28 53  1  0
 28 54  1  0
 29 55  1  0
 30 56  1  0
 30 57  1  0
 30 58  1  0
M  END
>  <filename_input>  (24) 
8BOM_QU6_docked.sdf

>  <pdb_id>  (24) 
8BOM_QU6

>  <pose_rank>  (24) 
23

>  <num_atoms_heavy>  (24) 
35

>  <num_torsions>  (24) 
6

>  <pose>  (24) 
[-84.57503571412703, -20.590211308858034, 94.53827351326413, 4.040954865974352, -0.7438203308918244, -3.7360736507790744, -0.6265243161720728, -1.624074574166402, 0.15656241410740285, 4.287369488067245, 0.04230660465527347, 2.620041038857198]

>  <energy>  (24) 
-478.9615519476015

>  <inter_energy>  (24) 
-476.60646761051623

>  <intra_energy>  (24) 
13.645513718622222

>  <rmsd>  (24) 
6.88537

>  <sdf_rank>  (24) 
0

$$$$

     RDKit          3D

 58 62  0  0  0  0  0  0  0  0999 V2000
  -77.4292  -21.2894   93.2177 N   0  0  0  0  0  0  0  0  0  0  0  0
  -76.6546  -18.3336   86.9576 N   0  0  0  0  0  0  0  0  0  0  0  0
  -80.7058  -21.9937   91.7225 C   0  0  0  0  0  0  0  0  0  0  0  0
  -81.2106  -21.8802   90.3202 C   0  0  0  0  0  0  0  0  0  0  0  0
  -82.4272  -20.4135   88.7496 C   0  0  0  0  0  0  0  0  0  0  0  0
  -81.7583  -20.2017   87.5459 C   0  0  0  0  0  0  0  0  0  0  0  0
  -82.4833  -19.9141   86.3973 C   0  0  0  0  0  0  0  0  0  0  0  0
  -83.8696  -19.8347   86.4453 C   0  0  0  0  0  0  0  0  0  0  0  0
  -79.3875  -21.5838   91.8683 C   0  0  0  0  0  0  0  0  0  0  0  0
  -76.4903  -20.6771   92.4478 C   0  0  0  0  0  0  0  0  0  0  0  0
  -76.4526  -19.6718   88.9563 C   0  0  0  0  0  0  0  0  0  0  0  0
  -77.2020  -19.3856   86.3400 C   0  0  0  0  0  0  0  0  0  0  0  0
  -76.2922  -18.4909   88.2374 C   0  0  0  0  0  0  0  0  0  0  0  0
  -74.7140  -19.1476   92.0791 C   0  0  0  0  0  0  0  0  0  0  0  0
  -74.7514  -19.6802   94.2336 C   0  0  0  0  0  0  0  0  0  0  0  0
  -81.6880  -20.6845   89.9248 N   0  0  0  0  0  0  0  0  0  0  0  0
  -78.6084  -22.6377   95.4511 C   0  0  0  0  0  0  0  0  0  0  0  0
  -81.7436  -19.7005   85.2534 O   0  0  0  0  0  0  0  0  0  0  0  0
  -79.3328  -22.3959   94.1477 C   0  0  0  0  0  0  0  0  0  0  0  0
  -84.5253  -20.1158   87.6317 C   0  0  0  0  0  0  0  0  0  0  0  0
  -83.8121  -20.4474   88.7699 C   0  0  0  0  0  0  0  0  0  0  0  0
  -78.6752  -21.8163   93.0424 C   0  0  0  0  0  0  0  0  0  0  0  0
  -76.0264  -19.7976   90.3661 C   0  0  0  0  0  0  0  0  0  0  0  0
  -77.0252  -20.7428   88.2779 C   0  0  0  0  0  0  0  0  0  0  0  0
  -77.4053  -20.6028   86.9562 C   0  0  0  0  0  0  0  0  0  0  0  0
  -80.6833  -22.7232   94.0104 C   0  0  0  0  0  0  0  0  0  0  0  0
  -75.4279  -19.9029   93.0124 C   0  0  0  0  0  0  0  0  0  0  0  0
  -72.6756  -17.6619   92.2117 C   0  0  0  0  0  0  0  0  0  0  0  0
  -81.3578  -22.5477   92.8138 C   0  0  0  0  0  0  0  0  0  0  0  0
  -80.3275  -19.9287   85.3387 C   0  0  0  0  0  0  0  0  0  0  0  0
  -76.7628  -20.6192   91.1398 N   0  0  0  0  0  0  0  0  0  0  0  0
  -74.9775  -19.0643   90.7717 N   0  0  0  0  0  0  0  0  0  0  0  0
  -73.7160  -18.8818   94.0700 N   0  0  0  0  0  0  0  0  0  0  0  0
  -73.6979  -18.5514   92.7446 N   0  0  0  0  0  0  0  0  0  0  0  0
  -81.1439  -22.8419   89.5612 O   0  0  0  0  0  0  0  0  0  0  0  0
  -77.1156  -21.3794   94.1947 H   0  0  0  0  0  0  0  0  0  0  0  0
  -80.6607  -20.2622   87.5057 H   0  0  0  0  0  0  0  0  0  0  0  0
  -84.4407  -19.5512   85.5490 H   0  0  0  0  0  0  0  0  0  0  0  0
  -78.8930  -21.0622   91.0356 H   0  0  0  0  0  0  0  0  0  0  0  0
  -77.5051  -19.2750   85.2884 H   0  0  0  0  0  0  0  0  0  0  0  0
  -75.8388  -17.6317   88.7534 H   0  0  0  0  0  0  0  0  0  0  0  0
  -75.0512  -20.1175   95.1974 H   0  0  0  0  0  0  0  0  0  0  0  0
  -81.4947  -19.8836   90.5430 H   0  0  0  0  0  0  0  0  0  0  0  0
  -79.2814  -22.4131   96.2918 H   0  0  0  0  0  0  0  0  0  0  0  0
  -78.2926  -23.6900   95.5054 H   0  0  0  0  0  0  0  0  0  0  0  0
  -77.7238  -21.9862   95.5054 H   0  0  0  0  0  0  0  0  0  0  0  0
  -85.6239  -20.0752   87.6697 H   0  0  0  0  0  0  0  0  0  0  0  0
  -84.3432  -20.7372   89.6885 H   0  0  0  0  0  0  0  0  0  0  0  0
  -77.1757  -21.7025   88.7940 H   0  0  0  0  0  0  0  0  0  0  0  0
  -77.8591  -21.4421   86.4089 H   0  0  0  0  0  0  0  0  0  0  0  0
  -81.2258  -23.1314   94.8758 H   0  0  0  0  0  0  0  0  0  0  0  0
  -72.1318  -17.1887   93.0426 H   0  0  0  0  0  0  0  0  0  0  0  0
  -71.9718  -18.2400   91.5949 H   0  0  0  0  0  0  0  0  0  0  0  0
  -73.1509  -16.8849   91.5949 H   0  0  0  0  0  0  0  0  0  0  0  0
  -82.4125  -22.8482   92.7288 H   0  0  0  0  0  0  0  0  0  0  0  0
  -80.0270  -19.9772   86.3957 H   0  0  0  0  0  0  0  0  0  0  0  0
  -80.0787  -20.8786   84.8428 H   0  0  0  0  0  0  0  0  0  0  0  0
  -79.7929  -19.1052   84.8428 H   0  0  0  0  0  0  0  0  0  0  0  0
  1 10  1  0
  1 22  1  0
  2 12  2  0
  2 13  1  0
  3  4  1  0
  3  9  2  0
  3 29  1  0
  4 16  1  0
  4 35  2  0
  5  6  2  0
  5 16  1  0
  5 21  1  0
  6  7  1  0
  7  8  2  0
  7 18  1  0
  8 20  1  0
  9 22  1  0
 10 27  2  0
 10 31  1  0
 11 13  2  0
 11 23  1  0
 11 24  1  0
 12 25  1  0
 14 27  1  0
 14 32  2  0
 14 34  1  0
 15 27  1  0
 15 33  2  0
 17 19  1  0
 18 30  1  0
 19 22  2  0
 19 26  1  0
 20 21  2  0
 23 31  2  0
 23 32  1  0
 24 25  2  0
 26 29  2  0
 28 34  1  0
 33 34  1  0
  1 36  1  0
  6 37  1  0
  8 38  1  0
  9 39  1  0
 12 40  1  0
 13 41  1  0
 15 42  1  0
 16 43  1  0
 17 44  1  0
 17 45  1  0
 17 46  1  0
 20 47  1  0
 21 48  1  0
 24 49  1  0
 25 50  1  0
 26 51  1  0
 28 52  1  0
 28 53  1  0
 28 54  1  0
 29 55  1  0
 30 56  1  0
 30 57  1  0
 30 58  1  0
M  END
>  <filename_input>  (25) 
8BOM_QU6_docked.sdf

>  <pdb_id>  (25) 
8BOM_QU6

>  <pose_rank>  (25) 
24

>  <num_atoms_heavy>  (25) 
35

>  <num_torsions>  (25) 
6

>  <pose>  (25) 
[-80.70579428062219, -21.993664690613034, 91.72253137770909, 2.973072611539591, 2.968404532480588, -1.4565037170517054, 1.8158642383091614, -1.810415397336143, -3.2375395639337343, -1.2495198796509372, -6.834278566054373, -3.6094961032389747]

>  <energy>  (25) 
-421.0939287775013

>  <inter_energy>  (25) 
-427.68612813830157

>  <intra_energy>  (25) 
32.524091444362334

>  <rmsd>  (25) 
8.14298

>  <sdf_rank>  (25) 
0

$$$$

     RDKit          3D

 58 62  0  0  0  0  0  0  0  0999 V2000
  -82.8760  -20.2090   85.0290 N   0  0  0  0  0  0  0  0  0  0  0  0
  -78.5920  -20.9790   89.3770 N   0  0  0  0  0  0  0  0  0  0  0  0
  -85.0340  -19.8540   87.9760 C   0  0  0  0  0  0  0  0  0  0  0  0
  -85.6020  -18.6530   88.6610 C   0  0  0  0  0  0  0  0  0  0  0  0
  -87.3740  -17.8850   90.2000 C   0  0  0  0  0  0  0  0  0  0  0  0
  -87.5860  -16.6700   89.5520 C   0  0  0  0  0  0  0  0  0  0  0  0
  -88.3890  -15.7050   90.1450 C   0  0  0  0  0  0  0  0  0  0  0  0
  -88.9780  -15.9460   91.3800 C   0  0  0  0  0  0  0  0  0  0  0  0
  -84.2220  -19.5390   86.8950 C   0  0  0  0  0  0  0  0  0  0  0  0
  -81.6060  -19.7270   84.9650 C   0  0  0  0  0  0  0  0  0  0  0  0
  -78.7050  -20.1580   87.1100 C   0  0  0  0  0  0  0  0  0  0  0  0
  -77.2580  -20.9260   89.3020 C   0  0  0  0  0  0  0  0  0  0  0  0
  -79.2850  -20.6010   88.2950 C   0  0  0  0  0  0  0  0  0  0  0  0
  -79.6520  -19.0370   83.8090 C   0  0  0  0  0  0  0  0  0  0  0  0
  -81.3900  -18.8300   82.4440 C   0  0  0  0  0  0  0  0  0  0  0  0
  -86.5380  -18.8600   89.6070 N   0  0  0  0  0  0  0  0  0  0  0  0
  -83.5970  -22.9630   85.3330 C   0  0  0  0  0  0  0  0  0  0  0  0
  -88.5320  -14.5250   89.4460 O   0  0  0  0  0  0  0  0  0  0  0  0
  -84.0820  -21.8690   86.2550 C   0  0  0  0  0  0  0  0  0  0  0  0
  -88.8160  -17.1830   91.9800 C   0  0  0  0  0  0  0  0  0  0  0  0
  -88.0540  -18.1660   91.3740 C   0  0  0  0  0  0  0  0  0  0  0  0
  -83.7800  -20.5140   86.0040 C   0  0  0  0  0  0  0  0  0  0  0  0
  -79.5150  -19.7610   85.9390 C   0  0  0  0  0  0  0  0  0  0  0  0
  -77.3150  -20.1180   87.0720 C   0  0  0  0  0  0  0  0  0  0  0  0
  -76.5800  -20.5050   88.1770 C   0  0  0  0  0  0  0  0  0  0  0  0
  -84.8280  -22.1750   87.3950 C   0  0  0  0  0  0  0  0  0  0  0  0
  -81.0300  -19.2560   83.7430 C   0  0  0  0  0  0  0  0  0  0  0  0
  -77.9410  -18.1130   82.1970 C   0  0  0  0  0  0  0  0  0  0  0  0
  -85.3170  -21.1870   88.2330 C   0  0  0  0  0  0  0  0  0  0  0  0
  -89.1380  -13.4230   90.1410 C   0  0  0  0  0  0  0  0  0  0  0  0
  -80.8440  -19.9600   86.0390 N   0  0  0  0  0  0  0  0  0  0  0  0
  -78.8700  -19.2760   84.8660 N   0  0  0  0  0  0  0  0  0  0  0  0
  -80.3450  -18.3790   81.7800 N   0  0  0  0  0  0  0  0  0  0  0  0
  -79.2760  -18.5120   82.6200 N   0  0  0  0  0  0  0  0  0  0  0  0
  -85.1860  -17.5320   88.3860 O   0  0  0  0  0  0  0  0  0  0  0  0
  -83.2574  -20.3930   84.0901 H   0  0  0  0  0  0  0  0  0  0  0  0
  -87.1193  -16.4761   88.5750 H   0  0  0  0  0  0  0  0  0  0  0  0
  -89.5676  -15.1612   91.8764 H   0  0  0  0  0  0  0  0  0  0  0  0
  -83.9200  -18.4929   86.7382 H   0  0  0  0  0  0  0  0  0  0  0  0
  -76.6723  -21.2333   90.1809 H   0  0  0  0  0  0  0  0  0  0  0  0
  -80.3830  -20.6434   88.3463 H   0  0  0  0  0  0  0  0  0  0  0  0
  -82.4120  -18.8699   82.0392 H   0  0  0  0  0  0  0  0  0  0  0  0
  -86.6577  -19.8298   89.9328 H   0  0  0  0  0  0  0  0  0  0  0  0
  -83.2228  -23.8072   85.9307 H   0  0  0  0  0  0  0  0  0  0  0  0
  -84.4286  -23.3032   84.6984 H   0  0  0  0  0  0  0  0  0  0  0  0
  -82.7865  -22.5752   84.6984 H   0  0  0  0  0  0  0  0  0  0  0  0
  -89.2977  -17.3863   92.9478 H   0  0  0  0  0  0  0  0  0  0  0  0
  -87.9882  -19.1680   91.8231 H   0  0  0  0  0  0  0  0  0  0  0  0
  -76.8000  -19.7779   86.1614 H   0  0  0  0  0  0  0  0  0  0  0  0
  -75.4805  -20.4778   88.1595 H   0  0  0  0  0  0  0  0  0  0  0  0
  -85.0327  -23.2291   87.6338 H   0  0  0  0  0  0  0  0  0  0  0  0
  -77.3162  -17.9262   83.0829 H   0  0  0  0  0  0  0  0  0  0  0  0
  -77.4920  -18.9162   81.5943 H   0  0  0  0  0  0  0  0  0  0  0  0
  -78.0064  -17.1951   81.5943 H   0  0  0  0  0  0  0  0  0  0  0  0
  -85.9309  -21.4600   89.1040 H   0  0  0  0  0  0  0  0  0  0  0  0
  -89.0509  -13.5813   91.2261 H   0  0  0  0  0  0  0  0  0  0  0  0
  -88.6265  -12.4892   89.8645 H   0  0  0  0  0  0  0  0  0  0  0  0
  -90.2005  -13.3548   89.8645 H   0  0  0  0  0  0  0  0  0  0  0  0
  1 10  1  0
  1 22  1  0
  2 12  2  0
  2 13  1  0
  3  4  1  0
  3  9  2  0
  3 29  1  0
  4 16  1  0
  4 35  2  0
  5  6  2  0
  5 16  1  0
  5 21  1  0
  6  7  1  0
  7  8  2  0
  7 18  1  0
  8 20  1  0
  9 22  1  0
 10 27  2  0
 10 31  1  0
 11 13  2  0
 11 23  1  0
 11 24  1  0
 12 25  1  0
 14 27  1  0
 14 32  2  0
 14 34  1  0
 15 27  1  0
 15 33  2  0
 17 19  1  0
 18 30  1  0
 19 22  2  0
 19 26  1  0
 20 21  2  0
 23 31  2  0
 23 32  1  0
 24 25  2  0
 26 29  2  0
 28 34  1  0
 33 34  1  0
  1 36  1  0
  6 37  1  0
  8 38  1  0
  9 39  1  0
 12 40  1  0
 13 41  1  0
 15 42  1  0
 16 43  1  0
 17 44  1  0
 17 45  1  0
 17 46  1  0
 20 47  1  0
 21 48  1  0
 24 49  1  0
 25 50  1  0
 26 51  1  0
 28 52  1  0
 28 53  1  0
 28 54  1  0
 29 55  1  0
 30 56  1  0
 30 57  1  0
 30 58  1  0
M  END
>  <filename_input>  (26) 
8BOM_QU6_docked.sdf

>  <pdb_id>  (26) 
8BOM_QU6

>  <pose_rank>  (26) 
25

>  <num_atoms_heavy>  (26) 
35

>  <num_torsions>  (26) 
6

>  <pose>  (26) 
[-85.034, -19.854, 87.976, 1e-06, 1e-06, 1e-06, 0.0, 0.0, 0.0, 0.0, 0.0, 0.0]

>  <energy>  (26) 
-2025.869644609066

>  <inter_energy>  (26) 
-2042.2089548538506

>  <intra_energy>  (26) 
20.08867797959934

>  <rmsd>  (26) 
0.0

>  <sdf_rank>  (26) 
0

$$$$
