
     RDKit          3D

 25 26  0  0  0  0  0  0  0  0999 V2000
   21.4772   66.9361   72.0523 C   0  0  0  0  0  0  0  0  0  0  0  0
   23.8206   66.6376   71.8671 C   0  0  0  0  0  0  0  0  0  0  0  0
   25.0743   67.3527   72.1817 C   0  0  0  0  0  0  0  0  0  0  0  0
   26.3114   65.2444   71.5140 C   0  0  0  0  0  0  0  0  0  0  0  0
   27.7494   64.8465   71.4204 C   0  0  0  0  0  0  0  0  0  0  0  0
   28.4942   66.0166   72.0740 C   0  0  0  0  0  0  0  0  0  0  0  0
   29.8218   66.1563   72.4782 C   0  0  0  0  0  0  0  0  0  0  0  0
   30.2927   67.3282   73.1169 C   0  0  0  0  0  0  0  0  0  0  0  0
   29.3723   68.3562   73.3586 C   0  0  0  0  0  0  0  0  0  0  0  0
   28.0553   68.2658   72.9632 C   0  0  0  0  0  0  0  0  0  0  0  0
   27.6006   67.0634   72.3258 C   0  0  0  0  0  0  0  0  0  0  0  0
   26.2682   66.6412   71.9404 N   0  0  0  0  0  0  0  0  0  0  0  0
   22.7651   67.4273   72.3805 O   0  0  0  0  0  0  0  0  0  0  0  0
   25.1297   68.4991   72.5502 O   0  0  0  0  0  0  0  0  0  0  0  0
   30.8512   64.8135   72.1280 Cl  0  0  0  0  0  0  0  0  0  0  0  0
   20.9195   66.7233   72.9763 H   0  0  0  0  0  0  0  0  0  0  0  0
   20.9360   67.6909   71.4629 H   0  0  0  0  0  0  0  0  0  0  0  0
   21.5763   66.0126   71.4629 H   0  0  0  0  0  0  0  0  0  0  0  0
   23.7129   66.5213   70.7785 H   0  0  0  0  0  0  0  0  0  0  0  0
   23.8157   65.6314   72.3115 H   0  0  0  0  0  0  0  0  0  0  0  0
   25.4439   64.6025   71.3007 H   0  0  0  0  0  0  0  0  0  0  0  0
   28.1735   63.9297   70.9849 H   0  0  0  0  0  0  0  0  0  0  0  0
   31.3471   67.4286   73.4138 H   0  0  0  0  0  0  0  0  0  0  0  0
   29.7113   69.2634   73.8801 H   0  0  0  0  0  0  0  0  0  0  0  0
   27.3628   69.1032   73.1337 H   0  0  0  0  0  0  0  0  0  0  0  0
  1 13  1  0
  2  3  1  0
  2 13  1  0
  3 12  1  0
  3 14  2  0
  4  5  2  0
  4 12  1  0
  5  6  1  0
  6  7  1  0
  6 11  2  0
  7  8  2  0
  7 15  1  0
  8  9  1  0
  9 10  2  0
 10 11  1  0
 11 12  1  0
  1 16  1  0
  1 17  1  0
  1 18  1  0
  2 19  1  0
  2 20  1  0
  4 21  1  0
  5 22  1  0
  8 23  1  0
  9 24  1  0
 10 25  1  0
M  END
>  <filename_input>  (1) 
8BTI_RFO_docked.sdf

>  <pdb_id>  (1) 
8BTI_RFO

>  <pose_rank>  (1) 
0

>  <num_atoms_heavy>  (1) 
15

>  <num_torsions>  (1) 
2

>  <pose>  (1) 
[25.074271141004193, 67.35267718206761, 72.18166131298433, 0.005298416130473169, 0.03658417962688414, 0.03404565088489613, 6.239229677941264, 5.927338045108134]

>  <energy>  (1) 
-815.6680939697022

>  <inter_energy>  (1) 
-786.9122128467473

>  <intra_energy>  (1) 
0.0

>  <rmsd>  (1) 
0.291108

>  <sdf_rank>  (1) 
0

$$$$

     RDKit          3D

 25 26  0  0  0  0  0  0  0  0999 V2000
   22.0709   67.4705   72.5293 C   0  0  0  0  0  0  0  0  0  0  0  0
   24.1339   67.2699   71.3809 C   0  0  0  0  0  0  0  0  0  0  0  0
   25.3093   66.3759   71.3478 C   0  0  0  0  0  0  0  0  0  0  0  0
   26.4972   68.0702   72.8106 C   0  0  0  0  0  0  0  0  0  0  0  0
   27.8464   68.1553   73.4486 C   0  0  0  0  0  0  0  0  0  0  0  0
   28.6115   66.9733   72.8415 C   0  0  0  0  0  0  0  0  0  0  0  0
   29.9644   66.6352   72.8713 C   0  0  0  0  0  0  0  0  0  0  0  0
   30.4707   65.5037   72.1885 C   0  0  0  0  0  0  0  0  0  0  0  0
   29.5683   64.7280   71.4494 C   0  0  0  0  0  0  0  0  0  0  0  0
   28.2218   65.0175   71.4045 C   0  0  0  0  0  0  0  0  0  0  0  0
   27.7350   66.1755   72.0978 C   0  0  0  0  0  0  0  0  0  0  0  0
   26.4223   66.7908   72.1087 N   0  0  0  0  0  0  0  0  0  0  0  0
   23.3548   66.8722   72.4928 O   0  0  0  0  0  0  0  0  0  0  0  0
   25.3384   65.3107   70.7842 O   0  0  0  0  0  0  0  0  0  0  0  0
   30.9709   67.6777   73.8123 Cl  0  0  0  0  0  0  0  0  0  0  0  0
   21.7629   67.6141   73.5755 H   0  0  0  0  0  0  0  0  0  0  0  0
   22.1059   68.4451   72.0204 H   0  0  0  0  0  0  0  0  0  0  0  0
   21.3472   66.8169   72.0204 H   0  0  0  0  0  0  0  0  0  0  0  0
   24.4554   68.3154   71.4972 H   0  0  0  0  0  0  0  0  0  0  0  0
   23.5566   67.2010   70.4471 H   0  0  0  0  0  0  0  0  0  0  0  0
   25.7051   68.8318   72.8604 H   0  0  0  0  0  0  0  0  0  0  0  0
   28.2059   68.8927   74.1814 H   0  0  0  0  0  0  0  0  0  0  0  0
   31.5380   65.2418   72.2367 H   0  0  0  0  0  0  0  0  0  0  0  0
   29.9462   63.8611   70.8875 H   0  0  0  0  0  0  0  0  0  0  0  0
   27.5302   64.3701   70.8453 H   0  0  0  0  0  0  0  0  0  0  0  0
  1 13  1  0
  2  3  1  0
  2 13  1  0
  3 12  1  0
  3 14  2  0
  4  5  2  0
  4 12  1  0
  5  6  1  0
  6  7  1  0
  6 11  2  0
  7  8  2  0
  7 15  1  0
  8  9  1  0
  9 10  2  0
 10 11  1  0
 11 12  1  0
  1 16  1  0
  1 17  1  0
  1 18  1  0
  2 19  1  0
  2 20  1  0
  4 21  1  0
  5 22  1  0
  8 23  1  0
  9 24  1  0
 10 25  1  0
M  END
>  <filename_input>  (2) 
8BTI_RFO_docked.sdf

>  <pdb_id>  (2) 
8BTI_RFO

>  <pose_rank>  (2) 
1

>  <num_atoms_heavy>  (2) 
15

>  <num_torsions>  (2) 
2

>  <pose>  (2) 
[25.309274304798826, 66.37590684742274, 71.34781647365743, 3.2551176160656046, -0.3452961765822518, 0.6404400559034463, 1.7278710448043857, -0.07374369818612381]

>  <energy>  (2) 
-687.868971678976

>  <inter_energy>  (2) 
-669.3527154551142

>  <intra_energy>  (2) 
1.4786623211250431

>  <rmsd>  (2) 
2.4884

>  <sdf_rank>  (2) 
0

$$$$

     RDKit          3D

 25 26  0  0  0  0  0  0  0  0999 V2000
   30.3259   61.6515   71.3003 C   0  0  0  0  0  0  0  0  0  0  0  0
   28.8799   63.4488   70.7581 C   0  0  0  0  0  0  0  0  0  0  0  0
   29.1810   64.7059   71.4729 C   0  0  0  0  0  0  0  0  0  0  0  0
   26.7272   65.2937   71.2396 C   0  0  0  0  0  0  0  0  0  0  0  0
   25.8672   66.4363   71.6750 C   0  0  0  0  0  0  0  0  0  0  0  0
   26.8717   67.4677   72.2024 C   0  0  0  0  0  0  0  0  0  0  0  0
   26.7204   68.8093   72.5528 C   0  0  0  0  0  0  0  0  0  0  0  0
   27.8131   69.6021   72.9777 C   0  0  0  0  0  0  0  0  0  0  0  0
   29.0789   69.0033   73.0180 C   0  0  0  0  0  0  0  0  0  0  0  0
   29.2709   67.6777   72.6943 C   0  0  0  0  0  0  0  0  0  0  0  0
   28.1484   66.8978   72.2577 C   0  0  0  0  0  0  0  0  0  0  0  0
   28.0799   65.5496   71.7290 N   0  0  0  0  0  0  0  0  0  0  0  0
   29.1724   62.3941   71.6546 O   0  0  0  0  0  0  0  0  0  0  0  0
   30.2688   65.0025   71.8993 O   0  0  0  0  0  0  0  0  0  0  0  0
   25.1100   69.4272   72.4522 Cl  0  0  0  0  0  0  0  0  0  0  0  0
   30.8425   61.3190   72.2127 H   0  0  0  0  0  0  0  0  0  0  0  0
   30.0292   60.7744   70.7065 H   0  0  0  0  0  0  0  0  0  0  0  0
   31.0016   62.2847   70.7065 H   0  0  0  0  0  0  0  0  0  0  0  0
   27.8183   63.4200   70.4717 H   0  0  0  0  0  0  0  0  0  0  0  0
   29.4757   63.3635   69.8374 H   0  0  0  0  0  0  0  0  0  0  0  0
   26.4010   64.4195   70.6570 H   0  0  0  0  0  0  0  0  0  0  0  0
   24.7712   66.5180   71.6279 H   0  0  0  0  0  0  0  0  0  0  0  0
   27.6731   70.6541   73.2667 H   0  0  0  0  0  0  0  0  0  0  0  0
   29.9463   69.6100   73.3172 H   0  0  0  0  0  0  0  0  0  0  0  0
   30.2701   67.2240   72.7696 H   0  0  0  0  0  0  0  0  0  0  0  0
  1 13  1  0
  2  3  1  0
  2 13  1  0
  3 12  1  0
  3 14  2  0
  4  5  2  0
  4 12  1  0
  5  6  1  0
  6  7  1  0
  6 11  2  0
  7  8  2  0
  7 15  1  0
  8  9  1  0
  9 10  2  0
 10 11  1  0
 11 12  1  0
  1 16  1  0
  1 17  1  0
  1 18  1  0
  2 19  1  0
  2 20  1  0
  4 21  1  0
  5 22  1  0
  8 23  1  0
  9 24  1  0
 10 25  1  0
M  END
>  <filename_input>  (3) 
8BTI_RFO_docked.sdf

>  <pdb_id>  (3) 
8BTI_RFO

>  <pose_rank>  (3) 
2

>  <num_atoms_heavy>  (3) 
15

>  <num_torsions>  (3) 
2

>  <pose>  (3) 
[29.181040809808906, 64.70594051068261, 71.4728940525247, 1.8214584339823778, 2.2487249608292434, 1.2420652192667412, 1.250790075906298, 0.97716653781366]

>  <energy>  (3) 
-533.1543614444965

>  <inter_energy>  (3) 
-517.8937408898571

>  <intra_energy>  (3) 
1.1456427883579008

>  <rmsd>  (3) 
5.08062

>  <sdf_rank>  (3) 
0

$$$$

     RDKit          3D

 25 26  0  0  0  0  0  0  0  0999 V2000
   22.6058   66.8541   73.7961 C   0  0  0  0  0  0  0  0  0  0  0  0
   24.1941   67.9269   72.4027 C   0  0  0  0  0  0  0  0  0  0  0  0
   25.6673   67.9556   72.5071 C   0  0  0  0  0  0  0  0  0  0  0  0
   25.6654   65.5946   71.5869 C   0  0  0  0  0  0  0  0  0  0  0  0
   26.7205   64.5964   71.2331 C   0  0  0  0  0  0  0  0  0  0  0  0
   28.0116   65.2253   71.7705 C   0  0  0  0  0  0  0  0  0  0  0  0
   29.2939   64.7026   71.9377 C   0  0  0  0  0  0  0  0  0  0  0  0
   30.3446   65.4595   72.5086 C   0  0  0  0  0  0  0  0  0  0  0  0
   30.0566   66.7638   72.9306 C   0  0  0  0  0  0  0  0  0  0  0  0
   28.8079   67.3245   72.7713 C   0  0  0  0  0  0  0  0  0  0  0  0
   27.7572   66.5331   72.1981 C   0  0  0  0  0  0  0  0  0  0  0  0
   26.3417   66.8063   72.0442 N   0  0  0  0  0  0  0  0  0  0  0  0
   23.6992   67.7517   73.7165 O   0  0  0  0  0  0  0  0  0  0  0  0
   26.3043   68.9068   72.8848 O   0  0  0  0  0  0  0  0  0  0  0  0
   29.5142   63.0811   71.3829 Cl  0  0  0  0  0  0  0  0  0  0  0  0
   22.3679   66.6588   74.8521 H   0  0  0  0  0  0  0  0  0  0  0  0
   21.7305   67.2975   73.2989 H   0  0  0  0  0  0  0  0  0  0  0  0
   22.8702   65.9092   73.2989 H   0  0  0  0  0  0  0  0  0  0  0  0
   23.8250   68.8734   71.9811 H   0  0  0  0  0  0  0  0  0  0  0  0
   23.8591   67.1145   71.7410 H   0  0  0  0  0  0  0  0  0  0  0  0
   24.5781   65.4442   71.5159 H   0  0  0  0  0  0  0  0  0  0  0  0
   26.5992   63.6363   70.7102 H   0  0  0  0  0  0  0  0  0  0  0  0
   31.3545   65.0374   72.6174 H   0  0  0  0  0  0  0  0  0  0  0  0
   30.8516   67.3588   73.4037 H   0  0  0  0  0  0  0  0  0  0  0  0
   28.6193   68.3636   73.0790 H   0  0  0  0  0  0  0  0  0  0  0  0
  1 13  1  0
  2  3  1  0
  2 13  1  0
  3 12  1  0
  3 14  2  0
  4  5  2  0
  4 12  1  0
  5  6  1  0
  6  7  1  0
  6 11  2  0
  7  8  2  0
  7 15  1  0
  8  9  1  0
  9 10  2  0
 10 11  1  0
 11 12  1  0
  1 16  1  0
  1 17  1  0
  1 18  1  0
  2 19  1  0
  2 20  1  0
  4 21  1  0
  5 22  1  0
  8 23  1  0
  9 24  1  0
 10 25  1  0
M  END
>  <filename_input>  (4) 
8BTI_RFO_docked.sdf

>  <pdb_id>  (4) 
8BTI_RFO

>  <pose_rank>  (4) 
3

>  <num_atoms_heavy>  (4) 
15

>  <num_torsions>  (4) 
2

>  <pose>  (4) 
[25.66730956410632, 67.95563141129692, 72.50711964139553, 0.08080353579876608, 0.20142207243023785, -0.4479023547501247, 30.254859228644197, 0.45307526066992115]

>  <energy>  (4) 
-730.7127524592474

>  <inter_energy>  (4) 
-722.5819287124905

>  <intra_energy>  (4) 
0.0

>  <rmsd>  (4) 
1.49968

>  <sdf_rank>  (4) 
0

$$$$

     RDKit          3D

 25 26  0  0  0  0  0  0  0  0999 V2000
   30.6575   67.3631   74.0038 C   0  0  0  0  0  0  0  0  0  0  0  0
   30.7594   65.6042   72.4192 C   0  0  0  0  0  0  0  0  0  0  0  0
   29.4015   65.2567   71.9529 C   0  0  0  0  0  0  0  0  0  0  0  0
   28.7231   67.6325   72.5156 C   0  0  0  0  0  0  0  0  0  0  0  0
   27.4627   68.4282   72.4001 C   0  0  0  0  0  0  0  0  0  0  0  0
   26.4087   67.3857   72.0086 C   0  0  0  0  0  0  0  0  0  0  0  0
   25.0166   67.4547   71.9544 C   0  0  0  0  0  0  0  0  0  0  0  0
   24.2225   66.3361   71.6065 C   0  0  0  0  0  0  0  0  0  0  0  0
   24.8776   65.1284   71.3338 C   0  0  0  0  0  0  0  0  0  0  0  0
   26.2511   65.0196   71.3616 C   0  0  0  0  0  0  0  0  0  0  0  0
   27.0332   66.1658   71.7263 C   0  0  0  0  0  0  0  0  0  0  0  0
   28.4554   66.3029   71.9722 N   0  0  0  0  0  0  0  0  0  0  0  0
   30.6389   65.9638   73.7823 O   0  0  0  0  0  0  0  0  0  0  0  0
   29.0908   64.1827   71.5024 O   0  0  0  0  0  0  0  0  0  0  0  0
   24.3338   68.9992   72.3200 Cl  0  0  0  0  0  0  0  0  0  0  0  0
   30.6602   67.5631   75.0855 H   0  0  0  0  0  0  0  0  0  0  0  0
   31.5615   67.7944   73.5490 H   0  0  0  0  0  0  0  0  0  0  0  0
   29.7653   67.8183   73.5490 H   0  0  0  0  0  0  0  0  0  0  0  0
   31.4302   64.7390   72.3128 H   0  0  0  0  0  0  0  0  0  0  0  0
   31.1831   66.4289   71.8274 H   0  0  0  0  0  0  0  0  0  0  0  0
   29.6779   67.9840   72.9336 H   0  0  0  0  0  0  0  0  0  0  0  0
   27.3241   69.5078   72.5587 H   0  0  0  0  0  0  0  0  0  0  0  0
   23.1265   66.4126   71.5519 H   0  0  0  0  0  0  0  0  0  0  0  0
   24.2773   64.2395   71.0900 H   0  0  0  0  0  0  0  0  0  0  0  0
   26.7407   64.0677   71.1079 H   0  0  0  0  0  0  0  0  0  0  0  0
  1 13  1  0
  2  3  1  0
  2 13  1  0
  3 12  1  0
  3 14  2  0
  4  5  2  0
  4 12  1  0
  5  6  1  0
  6  7  1  0
  6 11  2  0
  7  8  2  0
  7 15  1  0
  8  9  1  0
  9 10  2  0
 10 11  1  0
 11 12  1  0
  1 16  1  0
  1 17  1  0
  1 18  1  0
  2 19  1  0
  2 20  1  0
  4 21  1  0
  5 22  1  0
  8 23  1  0
  9 24  1  0
 10 25  1  0
M  END
>  <filename_input>  (5) 
8BTI_RFO_docked.sdf

>  <pdb_id>  (5) 
8BTI_RFO

>  <pose_rank>  (5) 
4

>  <num_atoms_heavy>  (5) 
15

>  <num_torsions>  (5) 
2

>  <pose>  (5) 
[29.401513167075116, 65.25673168344385, 71.95292143481488, -0.5030986307504725, -0.918729349193571, 2.7426169375504537, -1.912250443913969, 1.1040608259803937]

>  <energy>  (5) 
-409.2101051238849

>  <inter_energy>  (5) 
-495.40410615288926

>  <intra_energy>  (5) 
79.92122328627063

>  <rmsd>  (5) 
5.6786

>  <sdf_rank>  (5) 
0

$$$$

     RDKit          3D

 25 26  0  0  0  0  0  0  0  0999 V2000
   31.3838   65.4088   73.5476 C   0  0  0  0  0  0  0  0  0  0  0  0
   30.0971   65.6920   71.5781 C   0  0  0  0  0  0  0  0  0  0  0  0
   29.1389   66.7275   72.0157 C   0  0  0  0  0  0  0  0  0  0  0  0
   27.2958   65.0420   71.5874 C   0  0  0  0  0  0  0  0  0  0  0  0
   25.8089   65.0385   71.7415 C   0  0  0  0  0  0  0  0  0  0  0  0
   25.4731   66.4990   72.0661 C   0  0  0  0  0  0  0  0  0  0  0  0
   24.2557   67.1780   72.1161 C   0  0  0  0  0  0  0  0  0  0  0  0
   24.1797   68.5635   72.3942 C   0  0  0  0  0  0  0  0  0  0  0  0
   25.3798   69.2560   72.6004 C   0  0  0  0  0  0  0  0  0  0  0  0
   26.6031   68.6220   72.5743 C   0  0  0  0  0  0  0  0  0  0  0  0
   26.6539   67.2184   72.2810 C   0  0  0  0  0  0  0  0  0  0  0  0
   27.7833   66.3388   72.0515 N   0  0  0  0  0  0  0  0  0  0  0  0
   31.3156   65.9613   72.2446 O   0  0  0  0  0  0  0  0  0  0  0  0
   29.4527   67.8256   72.4016 O   0  0  0  0  0  0  0  0  0  0  0  0
   22.8522   66.2098   71.8366 Cl  0  0  0  0  0  0  0  0  0  0  0  0
   31.2846   66.2123   74.2922 H   0  0  0  0  0  0  0  0  0  0  0  0
   30.5686   64.6825   73.6810 H   0  0  0  0  0  0  0  0  0  0  0  0
   32.3513   64.9027   73.6810 H   0  0  0  0  0  0  0  0  0  0  0  0
   29.7275   64.6928   71.8518 H   0  0  0  0  0  0  0  0  0  0  0  0
   30.2297   65.7103   70.4862 H   0  0  0  0  0  0  0  0  0  0  0  0
   27.9109   64.2183   71.1960 H   0  0  0  0  0  0  0  0  0  0  0  0
   25.1180   64.1881   71.6448 H   0  0  0  0  0  0  0  0  0  0  0  0
   23.2099   69.0799   72.4468 H   0  0  0  0  0  0  0  0  0  0  0  0
   25.3447   70.3391   72.7889 H   0  0  0  0  0  0  0  0  0  0  0  0
   27.5272   69.1838   72.7753 H   0  0  0  0  0  0  0  0  0  0  0  0
  1 13  1  0
  2  3  1  0
  2 13  1  0
  3 12  1  0
  3 14  2  0
  4  5  2  0
  4 12  1  0
  5  6  1  0
  6  7  1  0
  6 11  2  0
  7  8  2  0
  7 15  1  0
  8  9  1  0
  9 10  2  0
 10 11  1  0
 11 12  1  0
  1 16  1  0
  1 17  1  0
  1 18  1  0
  2 19  1  0
  2 20  1  0
  4 21  1  0
  5 22  1  0
  8 23  1  0
  9 24  1  0
 10 25  1  0
M  END
>  <filename_input>  (6) 
8BTI_RFO_docked.sdf

>  <pdb_id>  (6) 
8BTI_RFO

>  <pose_rank>  (6) 
5

>  <num_atoms_heavy>  (6) 
15

>  <num_torsions>  (6) 
2

>  <pose>  (6) 
[29.138887491939936, 66.72752670461907, 72.01570036318695, -0.48492265707940024, -2.769629573839471, -0.9534055243717477, 0.6509867792975124, -1.9256750598993944]

>  <energy>  (6) 
-511.0163449152205

>  <inter_energy>  (6) 
-514.3505497074179

>  <intra_energy>  (6) 
2.718208320267353

>  <rmsd>  (6) 
5.35484

>  <sdf_rank>  (6) 
0

$$$$

     RDKit          3D

 25 26  0  0  0  0  0  0  0  0999 V2000
   30.4006   61.4738   70.6095 C   0  0  0  0  0  0  0  0  0  0  0  0
   29.0846   62.8541   72.0158 C   0  0  0  0  0  0  0  0  0  0  0  0
   27.9397   63.7566   71.7777 C   0  0  0  0  0  0  0  0  0  0  0  0
   29.4365   65.6645   72.5131 C   0  0  0  0  0  0  0  0  0  0  0  0
   29.2786   67.1460   72.6356 C   0  0  0  0  0  0  0  0  0  0  0  0
   27.7806   67.3732   72.4003 C   0  0  0  0  0  0  0  0  0  0  0  0
   26.9764   68.4977   72.5856 C   0  0  0  0  0  0  0  0  0  0  0  0
   25.5817   68.4708   72.3469 C   0  0  0  0  0  0  0  0  0  0  0  0
   25.0122   67.2596   71.9335 C   0  0  0  0  0  0  0  0  0  0  0  0
   25.7715   66.1288   71.7243 C   0  0  0  0  0  0  0  0  0  0  0  0
   27.1820   66.1796   71.9822 C   0  0  0  0  0  0  0  0  0  0  0  0
   28.1826   65.1305   71.9865 N   0  0  0  0  0  0  0  0  0  0  0  0
   29.7631   62.7275   70.7808 O   0  0  0  0  0  0  0  0  0  0  0  0
   26.8679   63.3998   71.3570 O   0  0  0  0  0  0  0  0  0  0  0  0
   27.8011   69.9246   73.1045 Cl  0  0  0  0  0  0  0  0  0  0  0  0
   30.6225   61.0376   71.5946 H   0  0  0  0  0  0  0  0  0  0  0  0
   29.7367   60.7981   70.0504 H   0  0  0  0  0  0  0  0  0  0  0  0
   31.3378   61.6124   70.0504 H   0  0  0  0  0  0  0  0  0  0  0  0
   29.7550   63.2835   72.7748 H   0  0  0  0  0  0  0  0  0  0  0  0
   28.7473   61.8745   72.3854 H   0  0  0  0  0  0  0  0  0  0  0  0
   30.3333   65.0826   72.7722 H   0  0  0  0  0  0  0  0  0  0  0  0
   30.0548   67.8968   72.8453 H   0  0  0  0  0  0  0  0  0  0  0  0
   24.9649   69.3716   72.4816 H   0  0  0  0  0  0  0  0  0  0  0  0
   23.9254   67.2096   71.7708 H   0  0  0  0  0  0  0  0  0  0  0  0
   25.3030   65.2008   71.3648 H   0  0  0  0  0  0  0  0  0  0  0  0
  1 13  1  0
  2  3  1  0
  2 13  1  0
  3 12  1  0
  3 14  2  0
  4  5  2  0
  4 12  1  0
  5  6  1  0
  6  7  1  0
  6 11  2  0
  7  8  2  0
  7 15  1  0
  8  9  1  0
  9 10  2  0
 10 11  1  0
 11 12  1  0
  1 16  1  0
  1 17  1  0
  1 18  1  0
  2 19  1  0
  2 20  1  0
  4 21  1  0
  5 22  1  0
  8 23  1  0
  9 24  1  0
 10 25  1  0
M  END
>  <filename_input>  (7) 
8BTI_RFO_docked.sdf

>  <pdb_id>  (7) 
8BTI_RFO

>  <pose_rank>  (7) 
6

>  <num_atoms_heavy>  (7) 
15

>  <num_torsions>  (7) 
2

>  <pose>  (7) 
[27.939713959517174, 63.75664583369934, 71.77767336445203, 1.0844102427952524, 1.2192522628176783, -3.923173299977484, 1.680787058936425, 0.2737866201626902]

>  <energy>  (7) 
-521.5072656743616

>  <inter_energy>  (7) 
-496.87942786620613

>  <intra_energy>  (7) 
0.9138062266558563

>  <rmsd>  (7) 
5.35957

>  <sdf_rank>  (7) 
0

$$$$

     RDKit          3D

 25 26  0  0  0  0  0  0  0  0999 V2000
   18.6476   64.5671   66.4714 C   0  0  0  0  0  0  0  0  0  0  0  0
   16.9219   65.5189   67.7871 C   0  0  0  0  0  0  0  0  0  0  0  0
   17.4065   66.6367   68.6225 C   0  0  0  0  0  0  0  0  0  0  0  0
   17.7695   64.9459   70.4747 C   0  0  0  0  0  0  0  0  0  0  0  0
   18.3018   65.0039   71.8704 C   0  0  0  0  0  0  0  0  0  0  0  0
   18.4439   66.5059   72.1437 C   0  0  0  0  0  0  0  0  0  0  0  0
   18.6892   67.2115   73.3217 C   0  0  0  0  0  0  0  0  0  0  0  0
   18.7329   68.6257   73.3545 C   0  0  0  0  0  0  0  0  0  0  0  0
   18.4976   69.3152   72.1581 C   0  0  0  0  0  0  0  0  0  0  0  0
   18.2658   68.6579   70.9693 C   0  0  0  0  0  0  0  0  0  0  0  0
   18.2174   67.2239   70.9643 C   0  0  0  0  0  0  0  0  0  0  0  0
   17.8592   66.2918   69.9132 N   0  0  0  0  0  0  0  0  0  0  0  0
   17.6538   65.5715   66.5775 O   0  0  0  0  0  0  0  0  0  0  0  0
   17.5013   67.7774   68.2444 O   0  0  0  0  0  0  0  0  0  0  0  0
   18.9553   66.2425   74.7273 Cl  0  0  0  0  0  0  0  0  0  0  0  0
   18.9594   64.2520   67.4782 H   0  0  0  0  0  0  0  0  0  0  0  0
   18.2390   63.7031   65.9269 H   0  0  0  0  0  0  0  0  0  0  0  0
   19.5159   64.9665   65.9269 H   0  0  0  0  0  0  0  0  0  0  0  0
   17.0988   64.5601   68.2964 H   0  0  0  0  0  0  0  0  0  0  0  0
   15.8410   65.6025   67.6007 H   0  0  0  0  0  0  0  0  0  0  0  0
   17.3810   64.0527   69.9635 H   0  0  0  0  0  0  0  0  0  0  0  0
   18.5365   64.1659   72.5432 H   0  0  0  0  0  0  0  0  0  0  0  0
   18.9446   69.1658   74.2891 H   0  0  0  0  0  0  0  0  0  0  0  0
   18.4980   70.4152   72.1678 H   0  0  0  0  0  0  0  0  0  0  0  0
   18.1199   69.2244   70.0377 H   0  0  0  0  0  0  0  0  0  0  0  0
  1 13  1  0
  2  3  1  0
  2 13  1  0
  3 12  1  0
  3 14  2  0
  4  5  2  0
  4 12  1  0
  5  6  1  0
  6  7  1  0
  6 11  2  0
  7  8  2  0
  7 15  1  0
  8  9  1  0
  9 10  2  0
 10 11  1  0
 11 12  1  0
  1 16  1  0
  1 17  1  0
  1 18  1  0
  2 19  1  0
  2 20  1  0
  4 21  1  0
  5 22  1  0
  8 23  1  0
  9 24  1  0
 10 25  1  0
M  END
>  <filename_input>  (8) 
8BTI_RFO_docked.sdf

>  <pdb_id>  (8) 
8BTI_RFO

>  <pose_rank>  (8) 
7

>  <num_atoms_heavy>  (8) 
15

>  <num_torsions>  (8) 
2

>  <pose>  (8) 
[17.406464613700926, 66.63668849619879, 68.62247204161585, -0.6427861379171427, -1.1262400390789211, -0.003956888118357586, 1.071448660539047, -1.5618200819794157]

>  <energy>  (8) 
-186.02104405408713

>  <inter_energy>  (8) 
-175.36934382188602

>  <intra_energy>  (8) 
0.0

>  <rmsd>  (8) 
9.42818

>  <sdf_rank>  (8) 
0

$$$$

     RDKit          3D

 25 26  0  0  0  0  0  0  0  0999 V2000
   21.7231   69.5155   65.1427 C   0  0  0  0  0  0  0  0  0  0  0  0
   23.1333   67.6927   64.5915 C   0  0  0  0  0  0  0  0  0  0  0  0
   24.6035   67.5565   64.6342 C   0  0  0  0  0  0  0  0  0  0  0  0
   24.3410   65.4936   63.1860 C   0  0  0  0  0  0  0  0  0  0  0  0
   25.2809   64.5133   62.5612 C   0  0  0  0  0  0  0  0  0  0  0  0
   26.6404   64.8713   63.1734 C   0  0  0  0  0  0  0  0  0  0  0  0
   27.8657   64.2051   63.1560 C   0  0  0  0  0  0  0  0  0  0  0  0
   28.9999   64.7015   63.8415 C   0  0  0  0  0  0  0  0  0  0  0  0
   28.8557   65.8890   64.5705 C   0  0  0  0  0  0  0  0  0  0  0  0
   27.6678   66.5868   64.6029 C   0  0  0  0  0  0  0  0  0  0  0  0
   26.5300   66.0576   63.9071 C   0  0  0  0  0  0  0  0  0  0  0  0
   25.1470   66.4921   63.8848 N   0  0  0  0  0  0  0  0  0  0  0  0
   22.8597   69.0705   64.4232 O   0  0  0  0  0  0  0  0  0  0  0  0
   25.3421   68.3257   65.1961 O   0  0  0  0  0  0  0  0  0  0  0  0
   27.9074   62.7491   62.2266 Cl  0  0  0  0  0  0  0  0  0  0  0  0
   21.9195   69.4386   66.2223 H   0  0  0  0  0  0  0  0  0  0  0  0
   21.5112   70.5630   64.8822 H   0  0  0  0  0  0  0  0  0  0  0  0
   20.8564   68.8903   64.8822 H   0  0  0  0  0  0  0  0  0  0  0  0
   22.7232   67.1185   63.7476 H   0  0  0  0  0  0  0  0  0  0  0  0
   22.6721   67.3063   65.5124 H   0  0  0  0  0  0  0  0  0  0  0  0
   23.2427   65.4679   63.1300 H   0  0  0  0  0  0  0  0  0  0  0  0
   25.0512   63.7213   61.8332 H   0  0  0  0  0  0  0  0  0  0  0  0
   29.9634   64.1722   63.8031 H   0  0  0  0  0  0  0  0  0  0  0  0
   29.7170   66.2763   65.1343 H   0  0  0  0  0  0  0  0  0  0  0  0
   27.5930   67.5357   65.1542 H   0  0  0  0  0  0  0  0  0  0  0  0
  1 13  1  0
  2  3  1  0
  2 13  1  0
  3 12  1  0
  3 14  2  0
  4  5  2  0
  4 12  1  0
  5  6  1  0
  6  7  1  0
  6 11  2  0
  7  8  2  0
  7 15  1  0
  8  9  1  0
  9 10  2  0
 10 11  1  0
 11 12  1  0
  1 16  1  0
  1 17  1  0
  1 18  1  0
  2 19  1  0
  2 20  1  0
  4 21  1  0
  5 22  1  0
  8 23  1  0
  9 24  1  0
 10 25  1  0
M  END
>  <filename_input>  (9) 
8BTI_RFO_docked.sdf

>  <pdb_id>  (9) 
8BTI_RFO

>  <pose_rank>  (9) 
8

>  <num_atoms_heavy>  (9) 
15

>  <num_torsions>  (9) 
2

>  <pose>  (9) 
[24.60349147570223, 67.55645474969228, 64.63416606275138, 0.3191686163022199, 0.28377059340965977, -0.5230949896156952, 0.8859621397270144, 0.3904223916074432]

>  <energy>  (9) 
-196.354361387252

>  <inter_energy>  (9) 
-184.3358326700219

>  <intra_energy>  (9) 
0.0

>  <rmsd>  (9) 
8.57539

>  <sdf_rank>  (9) 
0

$$$$

     RDKit          3D

 25 26  0  0  0  0  0  0  0  0999 V2000
   17.4249   74.4400   74.7220 C   0  0  0  0  0  0  0  0  0  0  0  0
   18.6667   72.4777   74.2504 C   0  0  0  0  0  0  0  0  0  0  0  0
   18.4509   71.0385   74.5037 C   0  0  0  0  0  0  0  0  0  0  0  0
   19.9934   70.5787   72.5465 C   0  0  0  0  0  0  0  0  0  0  0  0
   20.5344   69.3481   71.8925 C   0  0  0  0  0  0  0  0  0  0  0  0
   19.7493   68.2091   72.5540 C   0  0  0  0  0  0  0  0  0  0  0  0
   19.6419   66.8551   72.2367 C   0  0  0  0  0  0  0  0  0  0  0  0
   18.8064   65.9768   72.9672 C   0  0  0  0  0  0  0  0  0  0  0  0
   18.0581   66.5130   74.0230 C   0  0  0  0  0  0  0  0  0  0  0  0
   18.1450   67.8413   74.3796 C   0  0  0  0  0  0  0  0  0  0  0  0
   18.9922   68.7130   73.6173 C   0  0  0  0  0  0  0  0  0  0  0  0
   19.1666   70.1512   73.6728 N   0  0  0  0  0  0  0  0  0  0  0  0
   17.3923   73.0907   74.2907 O   0  0  0  0  0  0  0  0  0  0  0  0
   17.7762   70.5991   75.4008 O   0  0  0  0  0  0  0  0  0  0  0  0
   20.6111   66.3232   70.9088 Cl  0  0  0  0  0  0  0  0  0  0  0  0
   17.4257   74.4735   75.8215 H   0  0  0  0  0  0  0  0  0  0  0  0
   18.3351   74.9252   74.3397 H   0  0  0  0  0  0  0  0  0  0  0  0
   16.5393   74.9687   74.3397 H   0  0  0  0  0  0  0  0  0  0  0  0
   19.3186   72.9060   75.0261 H   0  0  0  0  0  0  0  0  0  0  0  0
   19.1548   72.6406   73.2782 H   0  0  0  0  0  0  0  0  0  0  0  0
   20.1831   71.6168   72.2363 H   0  0  0  0  0  0  0  0  0  0  0  0
   21.3129   69.2765   71.1187 H   0  0  0  0  0  0  0  0  0  0  0  0
   18.7466   64.9080   72.7141 H   0  0  0  0  0  0  0  0  0  0  0  0
   17.3804   65.8535   74.5848 H   0  0  0  0  0  0  0  0  0  0  0  0
   17.5731   68.2276   75.2361 H   0  0  0  0  0  0  0  0  0  0  0  0
  1 13  1  0
  2  3  1  0
  2 13  1  0
  3 12  1  0
  3 14  2  0
  4  5  2  0
  4 12  1  0
  5  6  1  0
  6  7  1  0
  6 11  2  0
  7  8  2  0
  7 15  1  0
  8  9  1  0
  9 10  2  0
 10 11  1  0
 11 12  1  0
  1 16  1  0
  1 17  1  0
  1 18  1  0
  2 19  1  0
  2 20  1  0
  4 21  1  0
  5 22  1  0
  8 23  1  0
  9 24  1  0
 10 25  1  0
M  END
>  <filename_input>  (10) 
8BTI_RFO_docked.sdf

>  <pdb_id>  (10) 
8BTI_RFO

>  <pose_rank>  (10) 
9

>  <num_atoms_heavy>  (10) 
15

>  <num_torsions>  (10) 
2

>  <pose>  (10) 
[18.450882651888442, 71.03850148564642, 74.50367285115159, -2.9566368164129404, 1.9873260894750557, 1.722300765325182, -0.6453374998882521, -0.775285333750478]

>  <energy>  (10) 
-217.60753819270545

>  <inter_energy>  (10) 
-195.68738391871995

>  <intra_energy>  (10) 
0.0

>  <rmsd>  (10) 
9.05842

>  <sdf_rank>  (10) 
0

$$$$

     RDKit          3D

 25 26  0  0  0  0  0  0  0  0999 V2000
   30.9417   66.0114   62.2426 C   0  0  0  0  0  0  0  0  0  0  0  0
   29.1460   66.7199   63.6169 C   0  0  0  0  0  0  0  0  0  0  0  0
   27.7959   66.1250   63.5460 C   0  0  0  0  0  0  0  0  0  0  0  0
   26.8906   68.3709   64.2929 C   0  0  0  0  0  0  0  0  0  0  0  0
   25.5275   68.9327   64.5399 C   0  0  0  0  0  0  0  0  0  0  0  0
   24.6077   67.7091   64.4510 C   0  0  0  0  0  0  0  0  0  0  0  0
   23.2654   67.5358   64.7884 C   0  0  0  0  0  0  0  0  0  0  0  0
   22.6167   66.2837   64.6682 C   0  0  0  0  0  0  0  0  0  0  0  0
   23.3738   65.1958   64.2146 C   0  0  0  0  0  0  0  0  0  0  0  0
   24.6982   65.3257   63.8568 C   0  0  0  0  0  0  0  0  0  0  0  0
   25.3353   66.6037   63.9966 C   0  0  0  0  0  0  0  0  0  0  0  0
   26.7225   66.9931   63.8364 N   0  0  0  0  0  0  0  0  0  0  0  0
   29.6835   66.6595   62.3095 O   0  0  0  0  0  0  0  0  0  0  0  0
   27.5677   64.9953   63.1925 O   0  0  0  0  0  0  0  0  0  0  0  0
   22.4485   68.9543   65.3413 Cl  0  0  0  0  0  0  0  0  0  0  0  0
   31.3108   65.8212   63.2612 H   0  0  0  0  0  0  0  0  0  0  0  0
   30.8342   65.0564   61.7073 H   0  0  0  0  0  0  0  0  0  0  0  0
   31.6568   66.6534   61.7073 H   0  0  0  0  0  0  0  0  0  0  0  0
   29.0830   67.7653   63.9534 H   0  0  0  0  0  0  0  0  0  0  0  0
   29.7815   66.1776   64.3325 H   0  0  0  0  0  0  0  0  0  0  0  0
   27.8460   68.8985   64.4300 H   0  0  0  0  0  0  0  0  0  0  0  0
   25.2496   69.9783   64.7387 H   0  0  0  0  0  0  0  0  0  0  0  0
   21.5528   66.1686   64.9225 H   0  0  0  0  0  0  0  0  0  0  0  0
   22.8963   64.2075   64.1419 H   0  0  0  0  0  0  0  0  0  0  0  0
   25.2588   64.4621   63.4695 H   0  0  0  0  0  0  0  0  0  0  0  0
  1 13  1  0
  2  3  1  0
  2 13  1  0
  3 12  1  0
  3 14  2  0
  4  5  2  0
  4 12  1  0
  5  6  1  0
  6  7  1  0
  6 11  2  0
  7  8  2  0
  7 15  1  0
  8  9  1  0
  9 10  2  0
 10 11  1  0
 11 12  1  0
  1 16  1  0
  1 17  1  0
  1 18  1  0
  2 19  1  0
  2 20  1  0
  4 21  1  0
  5 22  1  0
  8 23  1  0
  9 24  1  0
 10 25  1  0
M  END
>  <filename_input>  (11) 
8BTI_RFO_docked.sdf

>  <pdb_id>  (11) 
8BTI_RFO

>  <pose_rank>  (11) 
10

>  <num_atoms_heavy>  (11) 
15

>  <num_torsions>  (11) 
2

>  <pose>  (11) 
[27.795864473145564, 66.12498087273781, 63.54602695010954, -0.03206901039134092, -0.9047914329141935, 2.879492454253172, 1.233614861130111, 0.688959061114078]

>  <energy>  (11) 
-199.97034099404294

>  <inter_energy>  (11) 
-188.40588489763155

>  <intra_energy>  (11) 
0.0

>  <rmsd>  (11) 
10.1612

>  <sdf_rank>  (11) 
0

$$$$

     RDKit          3D

 25 26  0  0  0  0  0  0  0  0999 V2000
   33.0092   66.1884   62.4767 C   0  0  0  0  0  0  0  0  0  0  0  0
   30.9552   66.1974   63.6582 C   0  0  0  0  0  0  0  0  0  0  0  0
   29.7255   65.6307   63.0676 C   0  0  0  0  0  0  0  0  0  0  0  0
   28.4201   67.2525   64.5123 C   0  0  0  0  0  0  0  0  0  0  0  0
   26.9720   67.5740   64.6982 C   0  0  0  0  0  0  0  0  0  0  0  0
   26.2508   66.4764   63.9068 C   0  0  0  0  0  0  0  0  0  0  0  0
   24.9078   66.1027   63.8590 C   0  0  0  0  0  0  0  0  0  0  0  0
   24.4606   65.0074   63.0822 C   0  0  0  0  0  0  0  0  0  0  0  0
   25.4190   64.2791   62.3657 C   0  0  0  0  0  0  0  0  0  0  0  0
   26.7536   64.6223   62.3733 C   0  0  0  0  0  0  0  0  0  0  0  0
   27.1829   65.7313   63.1761 C   0  0  0  0  0  0  0  0  0  0  0  0
   28.5129   66.2205   63.4821 N   0  0  0  0  0  0  0  0  0  0  0  0
   31.7069   66.7356   62.5873 O   0  0  0  0  0  0  0  0  0  0  0  0
   29.7099   64.7707   62.2232 O   0  0  0  0  0  0  0  0  0  0  0  0
   23.8306   67.0782   64.7935 Cl  0  0  0  0  0  0  0  0  0  0  0  0
   33.4208   66.0154   63.4820 H   0  0  0  0  0  0  0  0  0  0  0  0
   32.9609   65.2344   61.9311 H   0  0  0  0  0  0  0  0  0  0  0  0
   33.6568   66.8905   61.9311 H   0  0  0  0  0  0  0  0  0  0  0  0
   30.7005   66.9888   64.3785 H   0  0  0  0  0  0  0  0  0  0  0  0
   31.5274   65.4280   64.1973 H   0  0  0  0  0  0  0  0  0  0  0  0
   29.2622   67.7095   65.0526 H   0  0  0  0  0  0  0  0  0  0  0  0
   26.5281   68.4032   65.2686 H   0  0  0  0  0  0  0  0  0  0  0  0
   23.3952   64.7369   63.0424 H   0  0  0  0  0  0  0  0  0  0  0  0
   25.0964   63.4063   61.7791 H   0  0  0  0  0  0  0  0  0  0  0  0
   27.4792   64.0544   61.7725 H   0  0  0  0  0  0  0  0  0  0  0  0
  1 13  1  0
  2  3  1  0
  2 13  1  0
  3 12  1  0
  3 14  2  0
  4  5  2  0
  4 12  1  0
  5  6  1  0
  6  7  1  0
  6 11  2  0
  7  8  2  0
  7 15  1  0
  8  9  1  0
  9 10  2  0
 10 11  1  0
 11 12  1  0
  1 16  1  0
  1 17  1  0
  1 18  1  0
  2 19  1  0
  2 20  1  0
  4 21  1  0
  5 22  1  0
  8 23  1  0
  9 24  1  0
 10 25  1  0
M  END
>  <filename_input>  (12) 
8BTI_RFO_docked.sdf

>  <pdb_id>  (12) 
8BTI_RFO

>  <pose_rank>  (12) 
11

>  <num_atoms_heavy>  (12) 
15

>  <num_torsions>  (12) 
2

>  <pose>  (12) 
[29.725499102070927, 65.63073780169721, 63.06764575795332, -0.2218319144077886, -1.6217504636979687, 2.707593915397208, 1.21462650815017, 0.743147577438738]

>  <energy>  (12) 
-195.55319129009038

>  <inter_energy>  (12) 
-177.9167629912374

>  <intra_energy>  (12) 
4.477900598916401e-07

>  <rmsd>  (12) 
10.7405

>  <sdf_rank>  (12) 
0

$$$$

     RDKit          3D

 25 26  0  0  0  0  0  0  0  0999 V2000
   25.6551   72.4439   63.1834 C   0  0  0  0  0  0  0  0  0  0  0  0
   25.7333   70.1548   63.7908 C   0  0  0  0  0  0  0  0  0  0  0  0
   26.8247   69.1827   64.0047 C   0  0  0  0  0  0  0  0  0  0  0  0
   25.0640   67.3617   63.9331 C   0  0  0  0  0  0  0  0  0  0  0  0
   25.0810   65.8697   64.0259 C   0  0  0  0  0  0  0  0  0  0  0  0
   26.5246   65.5464   64.4292 C   0  0  0  0  0  0  0  0  0  0  0  0
   27.1176   64.3636   64.8707 C   0  0  0  0  0  0  0  0  0  0  0  0
   28.4818   64.3010   65.2420 C   0  0  0  0  0  0  0  0  0  0  0  0
   29.2325   65.4818   65.1760 C   0  0  0  0  0  0  0  0  0  0  0  0
   28.6905   66.6685   64.7320 C   0  0  0  0  0  0  0  0  0  0  0  0
   27.3026   66.7079   64.3701 C   0  0  0  0  0  0  0  0  0  0  0  0
   26.4480   67.8233   64.0134 N   0  0  0  0  0  0  0  0  0  0  0  0
   26.3011   71.4410   63.9480 O   0  0  0  0  0  0  0  0  0  0  0  0
   27.9903   69.4770   64.0943 O   0  0  0  0  0  0  0  0  0  0  0  0
   26.0806   62.9823   64.9128 Cl  0  0  0  0  0  0  0  0  0  0  0  0
   25.1849   73.1738   63.8587 H   0  0  0  0  0  0  0  0  0  0  0  0
   26.3945   72.9546   62.5490 H   0  0  0  0  0  0  0  0  0  0  0  0
   24.8844   71.9818   62.5490 H   0  0  0  0  0  0  0  0  0  0  0  0
   25.3193   70.0438   62.7777 H   0  0  0  0  0  0  0  0  0  0  0  0
   24.9127   69.9934   64.5053 H   0  0  0  0  0  0  0  0  0  0  0  0
   24.1722   67.9963   63.8241 H   0  0  0  0  0  0  0  0  0  0  0  0
   24.2525   65.1686   63.8469 H   0  0  0  0  0  0  0  0  0  0  0  0
   28.9379   63.3559   65.5718 H   0  0  0  0  0  0  0  0  0  0  0  0
   30.2871   65.4613   65.4881 H   0  0  0  0  0  0  0  0  0  0  0  0
   29.3128   67.5723   64.6561 H   0  0  0  0  0  0  0  0  0  0  0  0
  1 13  1  0
  2  3  1  0
  2 13  1  0
  3 12  1  0
  3 14  2  0
  4  5  2  0
  4 12  1  0
  5  6  1  0
  6  7  1  0
  6 11  2  0
  7  8  2  0
  7 15  1  0
  8  9  1  0
  9 10  2  0
 10 11  1  0
 11 12  1  0
  1 16  1  0
  1 17  1  0
  1 18  1  0
  2 19  1  0
  2 20  1  0
  4 21  1  0
  5 22  1  0
  8 23  1  0
  9 24  1  0
 10 25  1  0
M  END
>  <filename_input>  (13) 
8BTI_RFO_docked.sdf

>  <pdb_id>  (13) 
8BTI_RFO

>  <pose_rank>  (13) 
12

>  <num_atoms_heavy>  (13) 
15

>  <num_torsions>  (13) 
2

>  <pose>  (13) 
[26.82472867073312, 69.18267135971762, 64.00470410044811, 0.8410890113611819, -0.5152568322633394, 4.90647372568078, 0.02305840491471055, -0.7709795845593314]

>  <energy>  (13) 
-192.80661939847835

>  <inter_energy>  (13) 
-176.893558784122

>  <intra_energy>  (13) 
0.0

>  <rmsd>  (13) 
8.63834

>  <sdf_rank>  (13) 
0

$$$$

     RDKit          3D

 25 26  0  0  0  0  0  0  0  0999 V2000
   28.5694   72.9575   62.6338 C   0  0  0  0  0  0  0  0  0  0  0  0
   29.3121   71.7718   64.5462 C   0  0  0  0  0  0  0  0  0  0  0  0
   29.7380   70.5134   63.9006 C   0  0  0  0  0  0  0  0  0  0  0  0
   27.4604   69.5724   64.4908 C   0  0  0  0  0  0  0  0  0  0  0  0
   26.7615   68.2711   64.2605 C   0  0  0  0  0  0  0  0  0  0  0  0
   27.8592   67.3638   63.6924 C   0  0  0  0  0  0  0  0  0  0  0  0
   27.8974   65.9871   63.4714 C   0  0  0  0  0  0  0  0  0  0  0  0
   29.0530   65.3383   62.9746 C   0  0  0  0  0  0  0  0  0  0  0  0
   30.1871   66.1220   62.7258 C   0  0  0  0  0  0  0  0  0  0  0  0
   30.1884   67.4868   62.9165 C   0  0  0  0  0  0  0  0  0  0  0  0
   29.0072   68.1194   63.4297 C   0  0  0  0  0  0  0  0  0  0  0  0
   28.7728   69.4856   63.8546 N   0  0  0  0  0  0  0  0  0  0  0  0
   29.5747   72.8096   63.6213 O   0  0  0  0  0  0  0  0  0  0  0  0
   30.8049   70.3512   63.3636 O   0  0  0  0  0  0  0  0  0  0  0  0
   26.4359   65.1362   63.8252 Cl  0  0  0  0  0  0  0  0  0  0  0  0
   27.5942   73.1010   63.1220 H   0  0  0  0  0  0  0  0  0  0  0  0
   28.7975   73.8318   62.0064 H   0  0  0  0  0  0  0  0  0  0  0  0
   28.5361   72.0546   62.0064 H   0  0  0  0  0  0  0  0  0  0  0  0
   28.2378   71.7341   64.7795 H   0  0  0  0  0  0  0  0  0  0  0  0
   29.8523   71.9358   65.4903 H   0  0  0  0  0  0  0  0  0  0  0  0
   27.0596   70.4375   65.0394 H   0  0  0  0  0  0  0  0  0  0  0  0
   25.7073   68.0228   64.4533 H   0  0  0  0  0  0  0  0  0  0  0  0
   29.0603   64.2540   62.7898 H   0  0  0  0  0  0  0  0  0  0  0  0
   31.1048   65.6330   62.3673 H   0  0  0  0  0  0  0  0  0  0  0  0
   31.0820   68.0826   62.6787 H   0  0  0  0  0  0  0  0  0  0  0  0
  1 13  1  0
  2  3  1  0
  2 13  1  0
  3 12  1  0
  3 14  2  0
  4  5  2  0
  4 12  1  0
  5  6  1  0
  6  7  1  0
  6 11  2  0
  7  8  2  0
  7 15  1  0
  8  9  1  0
  9 10  2  0
 10 11  1  0
 11 12  1  0
  1 16  1  0
  1 17  1  0
  1 18  1  0
  2 19  1  0
  2 20  1  0
  4 21  1  0
  5 22  1  0
  8 23  1  0
  9 24  1  0
 10 25  1  0
M  END
>  <filename_input>  (14) 
8BTI_RFO_docked.sdf

>  <pdb_id>  (14) 
8BTI_RFO

>  <pose_rank>  (14) 
13

>  <num_atoms_heavy>  (14) 
15

>  <num_torsions>  (14) 
2

>  <pose>  (14) 
[29.737952618942607, 70.51335540744547, 63.900552480694465, -0.22557695116806012, 0.9127790849750085, -1.5704089003734212, 1.0502219914714377, -1.975395959960503]

>  <energy>  (14) 
-176.31590682115356

>  <inter_energy>  (14) 
-157.12924430024736

>  <intra_energy>  (14) 
0.24662444674052209

>  <rmsd>  (14) 
10.0279

>  <sdf_rank>  (14) 
0

$$$$

     RDKit          3D

 25 26  0  0  0  0  0  0  0  0999 V2000
   16.8787   64.4985   69.1084 C   0  0  0  0  0  0  0  0  0  0  0  0
   17.1370   65.9823   70.9378 C   0  0  0  0  0  0  0  0  0  0  0  0
   18.4802   66.5948   70.9882 C   0  0  0  0  0  0  0  0  0  0  0  0
   19.0063   65.0118   72.8956 C   0  0  0  0  0  0  0  0  0  0  0  0
   20.2067   64.7400   73.7441 C   0  0  0  0  0  0  0  0  0  0  0  0
   21.1782   65.8664   73.3720 C   0  0  0  0  0  0  0  0  0  0  0  0
   22.3726   66.2871   73.9568 C   0  0  0  0  0  0  0  0  0  0  0  0
   23.0957   67.4015   73.4689 C   0  0  0  0  0  0  0  0  0  0  0  0
   22.5631   68.0998   72.3776 C   0  0  0  0  0  0  0  0  0  0  0  0
   21.3940   67.7102   71.7608 C   0  0  0  0  0  0  0  0  0  0  0  0
   20.6749   66.5825   72.2804 C   0  0  0  0  0  0  0  0  0  0  0  0
   19.3744   66.0455   71.9308 N   0  0  0  0  0  0  0  0  0  0  0  0
   16.8102   65.8367   69.5690 O   0  0  0  0  0  0  0  0  0  0  0  0
   18.8623   67.4595   70.2402 O   0  0  0  0  0  0  0  0  0  0  0  0
   22.9157   65.3447   75.2993 Cl  0  0  0  0  0  0  0  0  0  0  0  0
   16.9136   63.8155   69.9701 H   0  0  0  0  0  0  0  0  0  0  0  0
   15.9908   64.2746   68.4989 H   0  0  0  0  0  0  0  0  0  0  0  0
   17.7847   64.3663   68.4989 H   0  0  0  0  0  0  0  0  0  0  0  0
   17.1492   64.9996   71.4317 H   0  0  0  0  0  0  0  0  0  0  0  0
   16.3962   66.6073   71.4581 H   0  0  0  0  0  0  0  0  0  0  0  0
   18.0248   64.5227   72.9819 H   0  0  0  0  0  0  0  0  0  0  0  0
   20.3576   63.9237   74.4659 H   0  0  0  0  0  0  0  0  0  0  0  0
   24.0450   67.7093   73.9315 H   0  0  0  0  0  0  0  0  0  0  0  0
   23.0943   68.9865   72.0014 H   0  0  0  0  0  0  0  0  0  0  0  0
   21.0176   68.2557   70.8829 H   0  0  0  0  0  0  0  0  0  0  0  0
  1 13  1  0
  2  3  1  0
  2 13  1  0
  3 12  1  0
  3 14  2  0
  4  5  2  0
  4 12  1  0
  5  6  1  0
  6  7  1  0
  6 11  2  0
  7  8  2  0
  7 15  1  0
  8  9  1  0
  9 10  2  0
 10 11  1  0
 11 12  1  0
  1 16  1  0
  1 17  1  0
  1 18  1  0
  2 19  1  0
  2 20  1  0
  4 21  1  0
  5 22  1  0
  8 23  1  0
  9 24  1  0
 10 25  1  0
M  END
>  <filename_input>  (15) 
8BTI_RFO_docked.sdf

>  <pdb_id>  (15) 
8BTI_RFO

>  <pose_rank>  (15) 
14

>  <num_atoms_heavy>  (15) 
15

>  <num_torsions>  (15) 
2

>  <pose>  (15) 
[18.480189259560245, 66.59482247827432, 70.98815491774018, -1.0599145934233707, -0.3129937860768703, -0.2076426868365377, 0.8746584555425706, -1.5498219422246216]

>  <energy>  (15) 
-245.14731105104568

>  <inter_energy>  (15) 
-224.91812146936186

>  <intra_energy>  (15) 
0.0

>  <rmsd>  (15) 
6.97956

>  <sdf_rank>  (15) 
0

$$$$

     RDKit          3D

 25 26  0  0  0  0  0  0  0  0999 V2000
   17.2323   68.9216   71.5302 C   0  0  0  0  0  0  0  0  0  0  0  0
   16.9939   66.8302   70.4421 C   0  0  0  0  0  0  0  0  0  0  0  0
   18.1167   66.4625   69.5555 C   0  0  0  0  0  0  0  0  0  0  0  0
   16.7587   67.4030   67.6338 C   0  0  0  0  0  0  0  0  0  0  0  0
   16.9822   67.5763   66.1659 C   0  0  0  0  0  0  0  0  0  0  0  0
   18.2818   66.8065   65.9021 C   0  0  0  0  0  0  0  0  0  0  0  0
   18.9014   66.4194   64.7139 C   0  0  0  0  0  0  0  0  0  0  0  0
   20.0943   65.6580   64.7027 C   0  0  0  0  0  0  0  0  0  0  0  0
   20.6375   65.2753   65.9359 C   0  0  0  0  0  0  0  0  0  0  0  0
   20.0662   65.6479   67.1333 C   0  0  0  0  0  0  0  0  0  0  0  0
   18.8519   66.4121   67.1175 C   0  0  0  0  0  0  0  0  0  0  0  0
   17.9714   66.8137   68.1970 N   0  0  0  0  0  0  0  0  0  0  0  0
   17.5537   67.5416   71.5293 O   0  0  0  0  0  0  0  0  0  0  0  0
   19.1465   65.9625   69.9332 O   0  0  0  0  0  0  0  0  0  0  0  0
   18.1259   66.9496   63.2638 Cl  0  0  0  0  0  0  0  0  0  0  0  0
   17.1493   69.2781   72.5675 H   0  0  0  0  0  0  0  0  0  0  0  0
   18.0239   69.4827   71.0118 H   0  0  0  0  0  0  0  0  0  0  0  0
   16.2744   69.0754   71.0118 H   0  0  0  0  0  0  0  0  0  0  0  0
   16.2762   67.4652   69.9021 H   0  0  0  0  0  0  0  0  0  0  0  0
   16.4532   65.9371   70.7886 H   0  0  0  0  0  0  0  0  0  0  0  0
   15.8474   67.6703   68.1888 H   0  0  0  0  0  0  0  0  0  0  0  0
   16.3604   68.1267   65.4445 H   0  0  0  0  0  0  0  0  0  0  0  0
   20.5791   65.3758   63.7565 H   0  0  0  0  0  0  0  0  0  0  0  0
   21.5481   64.6583   65.9488 H   0  0  0  0  0  0  0  0  0  0  0  0
   20.5343   65.3637   68.0872 H   0  0  0  0  0  0  0  0  0  0  0  0
  1 13  1  0
  2  3  1  0
  2 13  1  0
  3 12  1  0
  3 14  2  0
  4  5  2  0
  4 12  1  0
  5  6  1  0
  6  7  1  0
  6 11  2  0
  7  8  2  0
  7 15  1  0
  8  9  1  0
  9 10  2  0
 10 11  1  0
 11 12  1  0
  1 16  1  0
  1 17  1  0
  1 18  1  0
  2 19  1  0
  2 20  1  0
  4 21  1  0
  5 22  1  0
  8 23  1  0
  9 24  1  0
 10 25  1  0
M  END
>  <filename_input>  (16) 
8BTI_RFO_docked.sdf

>  <pdb_id>  (16) 
8BTI_RFO

>  <pose_rank>  (16) 
15

>  <num_atoms_heavy>  (16) 
15

>  <num_torsions>  (16) 
2

>  <pose>  (16) 
[18.116690075067407, 66.46246996593143, 69.5554519050857, 1.527052661006584, 0.8731970995948626, -0.9060326364882889, 1.0275840620463255, -1.4822524694638184]

>  <energy>  (16) 
-89.76798182158414

>  <inter_energy>  (16) 
-88.49257094602441

>  <intra_energy>  (16) 
0.0

>  <rmsd>  (16) 
10.3112

>  <sdf_rank>  (16) 
0

$$$$

     RDKit          3D

 25 26  0  0  0  0  0  0  0  0999 V2000
   20.0676   63.9256   68.2870 C   0  0  0  0  0  0  0  0  0  0  0  0
   18.0259   64.9927   68.8418 C   0  0  0  0  0  0  0  0  0  0  0  0
   18.1369   66.4657   68.8429 C   0  0  0  0  0  0  0  0  0  0  0  0
   18.4912   66.3239   71.3480 C   0  0  0  0  0  0  0  0  0  0  0  0
   18.7541   67.3140   72.4368 C   0  0  0  0  0  0  0  0  0  0  0  0
   18.5576   68.6709   71.7503 C   0  0  0  0  0  0  0  0  0  0  0  0
   18.4570   69.9622   72.2679 C   0  0  0  0  0  0  0  0  0  0  0  0
   18.2236   71.0865   71.4406 C   0  0  0  0  0  0  0  0  0  0  0  0
   18.0708   70.8664   70.0657 C   0  0  0  0  0  0  0  0  0  0  0  0
   18.1771   69.6096   69.5106 C   0  0  0  0  0  0  0  0  0  0  0  0
   18.4049   68.4848   70.3719 C   0  0  0  0  0  0  0  0  0  0  0  0
   18.4178   67.0629   70.0897 N   0  0  0  0  0  0  0  0  0  0  0  0
   18.8747   64.5243   67.8114 O   0  0  0  0  0  0  0  0  0  0  0  0
   18.0760   67.1534   67.8547 O   0  0  0  0  0  0  0  0  0  0  0  0
   18.6567   70.0953   73.9789 Cl  0  0  0  0  0  0  0  0  0  0  0  0
   20.0652   63.9268   69.3870 H   0  0  0  0  0  0  0  0  0  0  0  0
   20.1290   62.8899   67.9216 H   0  0  0  0  0  0  0  0  0  0  0  0
   20.9347   64.4954   67.9216 H   0  0  0  0  0  0  0  0  0  0  0  0
   18.3477   64.5872   69.8124 H   0  0  0  0  0  0  0  0  0  0  0  0
   16.9866   64.6733   68.6756 H   0  0  0  0  0  0  0  0  0  0  0  0
   18.3744   65.2372   71.4717 H   0  0  0  0  0  0  0  0  0  0  0  0
   19.0248   67.1157   73.4844 H   0  0  0  0  0  0  0  0  0  0  0  0
   18.1641   72.1003   71.8635 H   0  0  0  0  0  0  0  0  0  0  0  0
   17.8596   71.7231   69.4088 H   0  0  0  0  0  0  0  0  0  0  0  0
   18.0885   69.4706   68.4230 H   0  0  0  0  0  0  0  0  0  0  0  0
  1 13  1  0
  2  3  1  0
  2 13  1  0
  3 12  1  0
  3 14  2  0
  4  5  2  0
  4 12  1  0
  5  6  1  0
  6  7  1  0
  6 11  2  0
  7  8  2  0
  7 15  1  0
  8  9  1  0
  9 10  2  0
 10 11  1  0
 11 12  1  0
  1 16  1  0
  1 17  1  0
  1 18  1  0
  2 19  1  0
  2 20  1  0
  4 21  1  0
  5 22  1  0
  8 23  1  0
  9 24  1  0
 10 25  1  0
M  END
>  <filename_input>  (17) 
8BTI_RFO_docked.sdf

>  <pdb_id>  (17) 
8BTI_RFO

>  <pose_rank>  (17) 
16

>  <num_atoms_heavy>  (17) 
15

>  <num_torsions>  (17) 
2

>  <pose>  (17) 
[18.136903641927194, 66.46571520222406, 68.84288750286883, -1.0768240943032148, -1.3077869534031596, 0.5558136006917224, 1.0145539309607543, -1.5509879680380434]

>  <energy>  (17) 
-171.47785098836582

>  <inter_energy>  (17) 
-153.03982794702193

>  <intra_energy>  (17) 
0.0

>  <rmsd>  (17) 
9.49386

>  <sdf_rank>  (17) 
0

$$$$

     RDKit          3D

 25 26  0  0  0  0  0  0  0  0999 V2000
   32.6432   60.0669   80.8569 C   0  0  0  0  0  0  0  0  0  0  0  0
   30.8908   58.8038   79.8827 C   0  0  0  0  0  0  0  0  0  0  0  0
   29.4838   58.6144   80.2905 C   0  0  0  0  0  0  0  0  0  0  0  0
   28.9327   58.3050   77.8365 C   0  0  0  0  0  0  0  0  0  0  0  0
   27.6902   58.0057   77.0610 C   0  0  0  0  0  0  0  0  0  0  0  0
   26.5731   58.1194   78.1052 C   0  0  0  0  0  0  0  0  0  0  0  0
   25.1851   58.1585   77.9727 C   0  0  0  0  0  0  0  0  0  0  0  0
   24.3288   58.3194   79.0879 C   0  0  0  0  0  0  0  0  0  0  0  0
   24.9188   58.4634   80.3502 C   0  0  0  0  0  0  0  0  0  0  0  0
   26.2845   58.4163   80.5281 C   0  0  0  0  0  0  0  0  0  0  0  0
   27.1314   58.2615   79.3803 C   0  0  0  0  0  0  0  0  0  0  0  0
   28.5744   58.3204   79.2529 N   0  0  0  0  0  0  0  0  0  0  0  0
   31.2993   60.0523   80.4080 O   0  0  0  0  0  0  0  0  0  0  0  0
   29.0992   58.6240   81.4329 O   0  0  0  0  0  0  0  0  0  0  0  0
   24.5864   57.9771   76.3621 Cl  0  0  0  0  0  0  0  0  0  0  0  0
   32.6624   60.0671   81.9567 H   0  0  0  0  0  0  0  0  0  0  0  0
   33.1649   59.1743   80.4812 H   0  0  0  0  0  0  0  0  0  0  0  0
   33.1455   60.9705   80.4812 H   0  0  0  0  0  0  0  0  0  0  0  0
   31.5165   57.9969   80.2918 H   0  0  0  0  0  0  0  0  0  0  0  0
   30.9929   58.7816   78.7876 H   0  0  0  0  0  0  0  0  0  0  0  0
   29.9343   58.4815   77.4172 H   0  0  0  0  0  0  0  0  0  0  0  0
   27.5988   57.7614   75.9924 H   0  0  0  0  0  0  0  0  0  0  0  0
   23.2354   58.3309   78.9674 H   0  0  0  0  0  0  0  0  0  0  0  0
   24.2721   58.6190   81.2263 H   0  0  0  0  0  0  0  0  0  0  0  0
   26.7190   58.4961   81.5355 H   0  0  0  0  0  0  0  0  0  0  0  0
  1 13  1  0
  2  3  1  0
  2 13  1  0
  3 12  1  0
  3 14  2  0
  4  5  2  0
  4 12  1  0
  5  6  1  0
  6  7  1  0
  6 11  2  0
  7  8  2  0
  7 15  1  0
  8  9  1  0
  9 10  2  0
 10 11  1  0
 11 12  1  0
  1 16  1  0
  1 17  1  0
  1 18  1  0
  2 19  1  0
  2 20  1  0
  4 21  1  0
  5 22  1  0
  8 23  1  0
  9 24  1  0
 10 25  1  0
M  END
>  <filename_input>  (18) 
8BTI_RFO_docked.sdf

>  <pdb_id>  (18) 
8BTI_RFO

>  <pose_rank>  (18) 
17

>  <num_atoms_heavy>  (18) 
15

>  <num_torsions>  (18) 
2

>  <pose>  (18) 
[29.483793837970826, 58.61441718977831, 80.29048764627613, 0.5557665590155538, -1.8604456116625454, -2.3868050776415357, -0.8054840723682765, -0.9038497600897671]

>  <energy>  (18) 
-171.3898371497244

>  <inter_energy>  (18) 
-147.61405885279845

>  <intra_energy>  (18) 
0.0

>  <rmsd>  (18) 
12.2776

>  <sdf_rank>  (18) 
0

$$$$

     RDKit          3D

 25 26  0  0  0  0  0  0  0  0999 V2000
   28.7888   57.0609   68.8698 C   0  0  0  0  0  0  0  0  0  0  0  0
   30.3336   58.8483   68.6860 C   0  0  0  0  0  0  0  0  0  0  0  0
   30.7172   58.5335   67.2948 C   0  0  0  0  0  0  0  0  0  0  0  0
   33.0673   58.1322   68.1535 C   0  0  0  0  0  0  0  0  0  0  0  0
   34.3600   57.7037   67.5369 C   0  0  0  0  0  0  0  0  0  0  0  0
   34.0711   57.7287   66.0312 C   0  0  0  0  0  0  0  0  0  0  0  0
   34.9173   57.6341   64.9265 C   0  0  0  0  0  0  0  0  0  0  0  0
   34.4339   57.7320   63.6000 C   0  0  0  0  0  0  0  0  0  0  0  0
   33.0625   57.9524   63.4183 C   0  0  0  0  0  0  0  0  0  0  0  0
   32.1890   58.0377   64.4806 C   0  0  0  0  0  0  0  0  0  0  0  0
   32.7055   57.9445   65.8161 C   0  0  0  0  0  0  0  0  0  0  0  0
   32.0568   58.1374   67.0982 N   0  0  0  0  0  0  0  0  0  0  0  0
   30.0167   57.6169   69.3064 O   0  0  0  0  0  0  0  0  0  0  0  0
   29.9523   58.5259   66.3631 O   0  0  0  0  0  0  0  0  0  0  0  0
   36.5860   57.3698   65.2883 Cl  0  0  0  0  0  0  0  0  0  0  0  0
   28.1799   56.7852   69.7435 H   0  0  0  0  0  0  0  0  0  0  0  0
   28.2461   57.8011   68.2635 H   0  0  0  0  0  0  0  0  0  0  0  0
   28.9870   56.1647   68.2635 H   0  0  0  0  0  0  0  0  0  0  0  0
   31.1704   59.3330   69.2101 H   0  0  0  0  0  0  0  0  0  0  0  0
   29.4778   59.5389   68.7150 H   0  0  0  0  0  0  0  0  0  0  0  0
   32.9062   58.3955   69.2093 H   0  0  0  0  0  0  0  0  0  0  0  0
   35.2980   57.4339   68.0442 H   0  0  0  0  0  0  0  0  0  0  0  0
   35.1129   57.6380   62.7396 H   0  0  0  0  0  0  0  0  0  0  0  0
   32.6708   58.0608   62.3961 H   0  0  0  0  0  0  0  0  0  0  0  0
   31.1115   58.1752   64.3074 H   0  0  0  0  0  0  0  0  0  0  0  0
  1 13  1  0
  2  3  1  0
  2 13  1  0
  3 12  1  0
  3 14  2  0
  4  5  2  0
  4 12  1  0
  5  6  1  0
  6  7  1  0
  6 11  2  0
  7  8  2  0
  7 15  1  0
  8  9  1  0
  9 10  2  0
 10 11  1  0
 11 12  1  0
  1 16  1  0
  1 17  1  0
  1 18  1  0
  2 19  1  0
  2 20  1  0
  4 21  1  0
  5 22  1  0
  8 23  1  0
  9 24  1  0
 10 25  1  0
M  END
>  <filename_input>  (19) 
8BTI_RFO_docked.sdf

>  <pdb_id>  (19) 
8BTI_RFO

>  <pose_rank>  (19) 
18

>  <num_atoms_heavy>  (19) 
15

>  <num_torsions>  (19) 
2

>  <pose>  (19) 
[30.71722352575748, 58.53353359847641, 67.29476192623045, 3.70149879024915, -1.6926712757679154, -0.9086576009490724, 1.8022525352453167, 1.6141159415984945]

>  <energy>  (19) 
-169.05627516357774

>  <inter_energy>  (19) 
-160.5178665722062

>  <intra_energy>  (19) 
9.357598240399126

>  <rmsd>  (19) 
12.4808

>  <sdf_rank>  (19) 
0

$$$$

     RDKit          3D

 25 26  0  0  0  0  0  0  0  0999 V2000
   34.5000   59.9016   78.8243 C   0  0  0  0  0  0  0  0  0  0  0  0
   32.4964   59.1069   79.8086 C   0  0  0  0  0  0  0  0  0  0  0  0
   31.1925   58.6663   79.2724 C   0  0  0  0  0  0  0  0  0  0  0  0
   30.1189   59.7782   81.2805 C   0  0  0  0  0  0  0  0  0  0  0  0
   28.7154   59.9727   81.7572 C   0  0  0  0  0  0  0  0  0  0  0  0
   27.8848   59.0984   80.8103 C   0  0  0  0  0  0  0  0  0  0  0  0
   26.5514   58.6919   80.8593 C   0  0  0  0  0  0  0  0  0  0  0  0
   25.9937   57.8280   79.8869 C   0  0  0  0  0  0  0  0  0  0  0  0
   26.8332   57.3636   78.8662 C   0  0  0  0  0  0  0  0  0  0  0  0
   28.1522   57.7512   78.7717 C   0  0  0  0  0  0  0  0  0  0  0  0
   28.6962   58.6204   79.7754 C   0  0  0  0  0  0  0  0  0  0  0  0
   30.0559   59.0677   80.0053 N   0  0  0  0  0  0  0  0  0  0  0  0
   33.4325   58.9725   78.7563 O   0  0  0  0  0  0  0  0  0  0  0  0
   31.0503   58.0663   78.2366 O   0  0  0  0  0  0  0  0  0  0  0  0
   25.6271   59.3300   82.1723 Cl  0  0  0  0  0  0  0  0  0  0  0  0
   34.7388   60.1094   79.8777 H   0  0  0  0  0  0  0  0  0  0  0  0
   35.3847   59.4809   78.3239 H   0  0  0  0  0  0  0  0  0  0  0  0
   34.2054   60.8359   78.3239 H   0  0  0  0  0  0  0  0  0  0  0  0
   32.4383   60.1563   80.1332 H   0  0  0  0  0  0  0  0  0  0  0  0
   32.7907   58.5045   80.6807 H   0  0  0  0  0  0  0  0  0  0  0  0
   31.0325   60.1095   81.7958 H   0  0  0  0  0  0  0  0  0  0  0  0
   28.3618   60.5965   82.5914 H   0  0  0  0  0  0  0  0  0  0  0  0
   24.9355   57.5310   79.9310 H   0  0  0  0  0  0  0  0  0  0  0  0
   26.4271   56.6680   78.1170 H   0  0  0  0  0  0  0  0  0  0  0  0
   28.7789   57.3994   77.9390 H   0  0  0  0  0  0  0  0  0  0  0  0
  1 13  1  0
  2  3  1  0
  2 13  1  0
  3 12  1  0
  3 14  2  0
  4  5  2  0
  4 12  1  0
  5  6  1  0
  6  7  1  0
  6 11  2  0
  7  8  2  0
  7 15  1  0
  8  9  1  0
  9 10  2  0
 10 11  1  0
 11 12  1  0
  1 16  1  0
  1 17  1  0
  1 18  1  0
  2 19  1  0
  2 20  1  0
  4 21  1  0
  5 22  1  0
  8 23  1  0
  9 24  1  0
 10 25  1  0
M  END
>  <filename_input>  (20) 
8BTI_RFO_docked.sdf

>  <pdb_id>  (20) 
8BTI_RFO

>  <pose_rank>  (20) 
19

>  <num_atoms_heavy>  (20) 
15

>  <num_torsions>  (20) 
2

>  <pose>  (20) 
[31.192472878688665, 58.66633430216562, 79.27239140102338, 0.0008720361947167077, -1.9318871760569836, 2.407994156888039, 6.709841011815962, -0.7772525018553182]

>  <energy>  (20) 
-130.32415231261584

>  <inter_energy>  (20) 
-127.85627029494732

>  <intra_energy>  (20) 
0.0

>  <rmsd>  (20) 
12.9256

>  <sdf_rank>  (20) 
0

$$$$

     RDKit          3D

 25 26  0  0  0  0  0  0  0  0999 V2000
   30.1530   71.4867   62.5334 C   0  0  0  0  0  0  0  0  0  0  0  0
   28.4306   70.0901   63.3689 C   0  0  0  0  0  0  0  0  0  0  0  0
   28.2470   68.6440   63.6075 C   0  0  0  0  0  0  0  0  0  0  0  0
   25.8237   68.9562   62.9356 C   0  0  0  0  0  0  0  0  0  0  0  0
   24.6427   68.0520   62.7855 C   0  0  0  0  0  0  0  0  0  0  0  0
   25.1257   66.7214   63.3749 C   0  0  0  0  0  0  0  0  0  0  0  0
   24.4369   65.5568   63.7138 C   0  0  0  0  0  0  0  0  0  0  0  0
   25.0860   64.4446   64.3009 C   0  0  0  0  0  0  0  0  0  0  0  0
   26.4587   64.5500   64.5594 C   0  0  0  0  0  0  0  0  0  0  0  0
   27.1805   65.6760   64.2277 C   0  0  0  0  0  0  0  0  0  0  0  0
   26.4974   66.7935   63.6418 C   0  0  0  0  0  0  0  0  0  0  0  0
   26.9630   68.1303   63.3289 N   0  0  0  0  0  0  0  0  0  0  0  0
   29.5252   70.2176   62.4816 O   0  0  0  0  0  0  0  0  0  0  0  0
   29.1273   67.8928   63.9447 O   0  0  0  0  0  0  0  0  0  0  0  0
   22.7479   65.5591   63.3496 Cl  0  0  0  0  0  0  0  0  0  0  0  0
   30.2986   71.7811   63.5832 H   0  0  0  0  0  0  0  0  0  0  0  0
   31.1289   71.4339   62.0286 H   0  0  0  0  0  0  0  0  0  0  0  0
   29.5188   72.2304   62.0286 H   0  0  0  0  0  0  0  0  0  0  0  0
   27.5238   70.5184   62.9169 H   0  0  0  0  0  0  0  0  0  0  0  0
   28.6187   70.6268   64.3105 H   0  0  0  0  0  0  0  0  0  0  0  0
   25.8332   70.0449   62.7786 H   0  0  0  0  0  0  0  0  0  0  0  0
   23.6585   68.2861   62.3536 H   0  0  0  0  0  0  0  0  0  0  0  0
   24.5306   63.5273   64.5462 H   0  0  0  0  0  0  0  0  0  0  0  0
   26.9764   63.7080   65.0422 H   0  0  0  0  0  0  0  0  0  0  0  0
   28.2646   65.7174   64.4093 H   0  0  0  0  0  0  0  0  0  0  0  0
  1 13  1  0
  2  3  1  0
  2 13  1  0
  3 12  1  0
  3 14  2  0
  4  5  2  0
  4 12  1  0
  5  6  1  0
  6  7  1  0
  6 11  2  0
  7  8  2  0
  7 15  1  0
  8  9  1  0
  9 10  2  0
 10 11  1  0
 11 12  1  0
  1 16  1  0
  1 17  1  0
  1 18  1  0
  2 19  1  0
  2 20  1  0
  4 21  1  0
  5 22  1  0
  8 23  1  0
  9 24  1  0
 10 25  1  0
M  END
>  <filename_input>  (21) 
8BTI_RFO_docked.sdf

>  <pdb_id>  (21) 
8BTI_RFO

>  <pose_rank>  (21) 
20

>  <num_atoms_heavy>  (21) 
15

>  <num_torsions>  (21) 
2

>  <pose>  (21) 
[28.246986382986375, 68.64399835828029, 63.60747304414219, -0.15278261968904042, -0.12434073340037502, 4.0957803067270655, 1.0887372879232544, 0.13042014183393846]

>  <energy>  (21) 
-144.1821902497955

>  <inter_energy>  (21) 
-146.46424265888373

>  <intra_energy>  (21) 
0.0

>  <rmsd>  (21) 
10.1991

>  <sdf_rank>  (21) 
0

$$$$

     RDKit          3D

 25 26  0  0  0  0  0  0  0  0999 V2000
   18.5361   72.2931   74.5008 C   0  0  0  0  0  0  0  0  0  0  0  0
   17.7320   70.7466   72.8956 C   0  0  0  0  0  0  0  0  0  0  0  0
   18.1062   69.3984   73.3692 C   0  0  0  0  0  0  0  0  0  0  0  0
   18.1999   68.6937   70.9369 C   0  0  0  0  0  0  0  0  0  0  0  0
   18.5369   67.4291   70.2143 C   0  0  0  0  0  0  0  0  0  0  0  0
   18.6516   66.3889   71.3349 C   0  0  0  0  0  0  0  0  0  0  0  0
   18.7388   64.9973   71.2983 C   0  0  0  0  0  0  0  0  0  0  0  0
   18.7883   64.2169   72.4779 C   0  0  0  0  0  0  0  0  0  0  0  0
   18.7240   64.8851   73.7074 C   0  0  0  0  0  0  0  0  0  0  0  0
   18.6518   66.2588   73.7896 C   0  0  0  0  0  0  0  0  0  0  0  0
   18.5938   67.0268   72.5789 C   0  0  0  0  0  0  0  0  0  0  0  0
   18.3757   68.4441   72.3658 N   0  0  0  0  0  0  0  0  0  0  0  0
   17.4425   71.5140   74.0483 O   0  0  0  0  0  0  0  0  0  0  0  0
   18.2604   69.1026   74.5275 O   0  0  0  0  0  0  0  0  0  0  0  0
   18.8029   64.2974   69.7199 Cl  0  0  0  0  0  0  0  0  0  0  0  0
   18.5494   72.3025   75.6007 H   0  0  0  0  0  0  0  0  0  0  0  0
   19.4751   71.8593   74.1265 H   0  0  0  0  0  0  0  0  0  0  0  0
   18.4328   73.3223   74.1265 H   0  0  0  0  0  0  0  0  0  0  0  0
   18.5660   71.1982   72.3385 H   0  0  0  0  0  0  0  0  0  0  0  0
   16.8650   70.7032   72.2199 H   0  0  0  0  0  0  0  0  0  0  0  0
   17.8782   69.6396   70.4768 H   0  0  0  0  0  0  0  0  0  0  0  0
   18.6710   67.2800   69.1327 H   0  0  0  0  0  0  0  0  0  0  0  0
   18.8743   63.1213   72.4309 H   0  0  0  0  0  0  0  0  0  0  0  0
   18.7313   64.2952   74.6358 H   0  0  0  0  0  0  0  0  0  0  0  0
   18.6389   66.7593   74.7690 H   0  0  0  0  0  0  0  0  0  0  0  0
  1 13  1  0
  2  3  1  0
  2 13  1  0
  3 12  1  0
  3 14  2  0
  4  5  2  0
  4 12  1  0
  5  6  1  0
  6  7  1  0
  6 11  2  0
  7  8  2  0
  7 15  1  0
  8  9  1  0
  9 10  2  0
 10 11  1  0
 11 12  1  0
  1 16  1  0
  1 17  1  0
  1 18  1  0
  2 19  1  0
  2 20  1  0
  4 21  1  0
  5 22  1  0
  8 23  1  0
  9 24  1  0
 10 25  1  0
M  END
>  <filename_input>  (22) 
8BTI_RFO_docked.sdf

>  <pdb_id>  (22) 
8BTI_RFO

>  <pose_rank>  (22) 
21

>  <num_atoms_heavy>  (22) 
15

>  <num_torsions>  (22) 
2

>  <pose>  (22) 
[18.106191534439787, 69.39838876269852, 73.36917438154545, -3.0102299183170333, 1.4991488560980266, 3.0024965638343946, 0.06927996831068547, -1.729746718139004]

>  <energy>  (22) 
-161.0144207120803

>  <inter_energy>  (22) 
-158.9819612888885

>  <intra_energy>  (22) 
4.739694737475319

>  <rmsd>  (22) 
9.14056

>  <sdf_rank>  (22) 
0

$$$$

     RDKit          3D

 25 26  0  0  0  0  0  0  0  0999 V2000
   27.5777   57.1147   76.6368 C   0  0  0  0  0  0  0  0  0  0  0  0
   29.2867   57.7291   78.1589 C   0  0  0  0  0  0  0  0  0  0  0  0
   29.5882   58.7797   79.1525 C   0  0  0  0  0  0  0  0  0  0  0  0
   32.0397   58.4189   78.6223 C   0  0  0  0  0  0  0  0  0  0  0  0
   33.3227   59.0338   79.0812 C   0  0  0  0  0  0  0  0  0  0  0  0
   32.8992   59.9295   80.2515 C   0  0  0  0  0  0  0  0  0  0  0  0
   33.6469   60.5996   81.2197 C   0  0  0  0  0  0  0  0  0  0  0  0
   33.0367   61.3447   82.2567 C   0  0  0  0  0  0  0  0  0  0  0  0
   31.6370   61.3765   82.3028 C   0  0  0  0  0  0  0  0  0  0  0  0
   30.8601   60.7410   81.3586 C   0  0  0  0  0  0  0  0  0  0  0  0
   31.5029   59.9845   80.3225 C   0  0  0  0  0  0  0  0  0  0  0  0
   30.9500   59.1157   79.3020 N   0  0  0  0  0  0  0  0  0  0  0  0
   28.0361   58.0609   77.5866 O   0  0  0  0  0  0  0  0  0  0  0  0
   28.7532   59.3954   79.7665 O   0  0  0  0  0  0  0  0  0  0  0  0
   35.3621   60.4742   81.0533 Cl  0  0  0  0  0  0  0  0  0  0  0  0
   27.1559   56.2442   77.1605 H   0  0  0  0  0  0  0  0  0  0  0  0
   26.8024   57.5743   76.0062 H   0  0  0  0  0  0  0  0  0  0  0  0
   28.4189   56.7911   76.0062 H   0  0  0  0  0  0  0  0  0  0  0  0
   30.0654   57.7065   77.3823 H   0  0  0  0  0  0  0  0  0  0  0  0
   29.2566   56.7352   78.6292 H   0  0  0  0  0  0  0  0  0  0  0  0
   31.9350   57.5925   77.9040 H   0  0  0  0  0  0  0  0  0  0  0  0
   34.3332   58.8799   78.6747 H   0  0  0  0  0  0  0  0  0  0  0  0
   33.6418   61.8814   83.0022 H   0  0  0  0  0  0  0  0  0  0  0  0
   31.1428   61.9257   83.1178 H   0  0  0  0  0  0  0  0  0  0  0  0
   29.7632   60.8127   81.3985 H   0  0  0  0  0  0  0  0  0  0  0  0
  1 13  1  0
  2  3  1  0
  2 13  1  0
  3 12  1  0
  3 14  2  0
  4  5  2  0
  4 12  1  0
  5  6  1  0
  6  7  1  0
  6 11  2  0
  7  8  2  0
  7 15  1  0
  8  9  1  0
  9 10  2  0
 10 11  1  0
 11 12  1  0
  1 16  1  0
  1 17  1  0
  1 18  1  0
  2 19  1  0
  2 20  1  0
  4 21  1  0
  5 22  1  0
  8 23  1  0
  9 24  1  0
 10 25  1  0
M  END
>  <filename_input>  (23) 
8BTI_RFO_docked.sdf

>  <pdb_id>  (23) 
8BTI_RFO

>  <pose_rank>  (23) 
22

>  <num_atoms_heavy>  (23) 
15

>  <num_torsions>  (23) 
2

>  <pose>  (23) 
[29.58815999219407, 58.77970018728907, 79.15252037051765, -2.265487265090833, 1.80239502775339, -4.495165949904505, 0.7114446566992078, -0.22405540986707745]

>  <energy>  (23) 
-147.53644729659445

>  <inter_energy>  (23) 
-130.44065502062566

>  <intra_energy>  (23) 
0.0

>  <rmsd>  (23) 
11.8094

>  <sdf_rank>  (23) 
0

$$$$

     RDKit          3D

 25 26  0  0  0  0  0  0  0  0999 V2000
   20.8602   57.9116   77.4734 C   0  0  0  0  0  0  0  0  0  0  0  0
   21.8539   58.3506   79.5793 C   0  0  0  0  0  0  0  0  0  0  0  0
   22.9527   59.1606   80.1436 C   0  0  0  0  0  0  0  0  0  0  0  0
   24.5072   57.2418   79.5753 C   0  0  0  0  0  0  0  0  0  0  0  0
   25.9762   56.9967   79.7049 C   0  0  0  0  0  0  0  0  0  0  0  0
   26.4707   58.1821   80.5424 C   0  0  0  0  0  0  0  0  0  0  0  0
   27.6909   58.4218   81.1741 C   0  0  0  0  0  0  0  0  0  0  0  0
   27.9191   59.5830   81.9503 C   0  0  0  0  0  0  0  0  0  0  0  0
   26.8638   60.4934   82.0910 C   0  0  0  0  0  0  0  0  0  0  0  0
   25.6471   60.3031   81.4726 C   0  0  0  0  0  0  0  0  0  0  0  0
   25.4379   59.1131   80.6986 C   0  0  0  0  0  0  0  0  0  0  0  0
   24.2412   58.5913   80.0683 N   0  0  0  0  0  0  0  0  0  0  0  0
   21.6936   58.7664   78.2365 O   0  0  0  0  0  0  0  0  0  0  0  0
   22.8204   60.2757   80.5820 O   0  0  0  0  0  0  0  0  0  0  0  0
   28.9055   57.2180   80.9270 Cl  0  0  0  0  0  0  0  0  0  0  0  0
   20.2546   57.2904   78.1497 H   0  0  0  0  0  0  0  0  0  0  0  0
   20.1964   58.5173   76.8390 H   0  0  0  0  0  0  0  0  0  0  0  0
   21.4826   57.2633   76.8390 H   0  0  0  0  0  0  0  0  0  0  0  0
   22.1118   57.2820   79.6176 H   0  0  0  0  0  0  0  0  0  0  0  0
   20.9246   58.4895   80.1512 H   0  0  0  0  0  0  0  0  0  0  0  0
   23.7624   56.5351   79.1807 H   0  0  0  0  0  0  0  0  0  0  0  0
   26.5642   56.1620   79.2956 H   0  0  0  0  0  0  0  0  0  0  0  0
   28.8933   59.7647   82.4277 H   0  0  0  0  0  0  0  0  0  0  0  0
   27.0109   61.3879   82.7142 H   0  0  0  0  0  0  0  0  0  0  0  0
   24.8479   61.0524   81.5710 H   0  0  0  0  0  0  0  0  0  0  0  0
  1 13  1  0
  2  3  1  0
  2 13  1  0
  3 12  1  0
  3 14  2  0
  4  5  2  0
  4 12  1  0
  5  6  1  0
  6  7  1  0
  6 11  2  0
  7  8  2  0
  7 15  1  0
  8  9  1  0
  9 10  2  0
 10 11  1  0
 11 12  1  0
  1 16  1  0
  1 17  1  0
  1 18  1  0
  2 19  1  0
  2 20  1  0
  4 21  1  0
  5 22  1  0
  8 23  1  0
  9 24  1  0
 10 25  1  0
M  END
>  <filename_input>  (24) 
8BTI_RFO_docked.sdf

>  <pdb_id>  (24) 
8BTI_RFO

>  <pose_rank>  (24) 
23

>  <num_atoms_heavy>  (24) 
15

>  <num_torsions>  (24) 
2

>  <pose>  (24) 
[22.952707231125657, 59.16064264924439, 80.14357103144897, -2.008125642423315, 3.923710841474693, -4.185433974687735, 1.6370994382269917, -0.4661865560906072]

>  <energy>  (24) 
-126.65998672671782

>  <inter_energy>  (24) 
-112.09469411437784

>  <intra_energy>  (24) 
0.5160357022607823

>  <rmsd>  (24) 
11.7217

>  <sdf_rank>  (24) 
0

$$$$

     RDKit          3D

 25 26  0  0  0  0  0  0  0  0999 V2000
   25.6632   61.3431   80.3003 C   0  0  0  0  0  0  0  0  0  0  0  0
   26.4467   62.3479   82.2982 C   0  0  0  0  0  0  0  0  0  0  0  0
   27.8559   62.7780   82.1933 C   0  0  0  0  0  0  0  0  0  0  0  0
   27.0263   65.1622   82.4140 C   0  0  0  0  0  0  0  0  0  0  0  0
   27.6757   66.5078   82.4643 C   0  0  0  0  0  0  0  0  0  0  0  0
   29.1402   66.2185   82.1138 C   0  0  0  0  0  0  0  0  0  0  0  0
   30.1993   67.0686   81.7956 C   0  0  0  0  0  0  0  0  0  0  0  0
   31.4803   66.5755   81.4509 C   0  0  0  0  0  0  0  0  0  0  0  0
   31.6583   65.1865   81.4144 C   0  0  0  0  0  0  0  0  0  0  0  0
   30.6436   64.3110   81.7355 C   0  0  0  0  0  0  0  0  0  0  0  0
   29.3515   64.8360   82.0726 C   0  0  0  0  0  0  0  0  0  0  0  0
   28.0886   64.1646   82.3092 N   0  0  0  0  0  0  0  0  0  0  0  0
   26.3288   61.1607   81.5377 O   0  0  0  0  0  0  0  0  0  0  0  0
   28.7916   62.0248   82.0922 O   0  0  0  0  0  0  0  0  0  0  0  0
   29.8453   68.7581   81.8711 Cl  0  0  0  0  0  0  0  0  0  0  0  0
   24.6174   61.6297   80.4852 H   0  0  0  0  0  0  0  0  0  0  0  0
   26.1650   62.1369   79.7275 H   0  0  0  0  0  0  0  0  0  0  0  0
   25.6903   60.4044   79.7275 H   0  0  0  0  0  0  0  0  0  0  0  0
   26.1865   62.1530   83.3490 H   0  0  0  0  0  0  0  0  0  0  0  0
   25.7653   63.1270   81.9255 H   0  0  0  0  0  0  0  0  0  0  0  0
   25.9456   64.9601   82.4494 H   0  0  0  0  0  0  0  0  0  0  0  0
   27.2120   67.4775   82.6979 H   0  0  0  0  0  0  0  0  0  0  0  0
   32.3091   67.2606   81.2193 H   0  0  0  0  0  0  0  0  0  0  0  0
   32.6381   64.7822   81.1204 H   0  0  0  0  0  0  0  0  0  0  0  0
   30.8217   63.2256   81.7333 H   0  0  0  0  0  0  0  0  0  0  0  0
  1 13  1  0
  2  3  1  0
  2 13  1  0
  3 12  1  0
  3 14  2  0
  4  5  2  0
  4 12  1  0
  5  6  1  0
  6  7  1  0
  6 11  2  0
  7  8  2  0
  7 15  1  0
  8  9  1  0
  9 10  2  0
 10 11  1  0
 11 12  1  0
  1 16  1  0
  1 17  1  0
  1 18  1  0
  2 19  1  0
  2 20  1  0
  4 21  1  0
  5 22  1  0
  8 23  1  0
  9 24  1  0
 10 25  1  0
M  END
>  <filename_input>  (25) 
8BTI_RFO_docked.sdf

>  <pdb_id>  (25) 
8BTI_RFO

>  <pose_rank>  (25) 
24

>  <num_atoms_heavy>  (25) 
15

>  <num_torsions>  (25) 
2

>  <pose>  (25) 
[27.855895860139714, 62.77804969258762, 82.1932916999719, -3.03405283203002, -1.3014164623529725, -0.260313545783417, -0.37626802909517654, 1.0396959001232602]

>  <energy>  (25) 
-144.82690239673565

>  <inter_energy>  (25) 
-132.24853380710044

>  <intra_energy>  (25) 
0.0

>  <rmsd>  (25) 
10.7232

>  <sdf_rank>  (25) 
0

$$$$

     RDKit          3D

 25 26  0  0  0  0  0  0  0  0999 V2000
   21.3460   67.1520   72.1260 C   0  0  0  0  0  0  0  0  0  0  0  0
   23.6600   66.9270   71.6680 C   0  0  0  0  0  0  0  0  0  0  0  0
   24.9250   67.6010   72.0250 C   0  0  0  0  0  0  0  0  0  0  0  0
   26.1130   65.4480   71.4130 C   0  0  0  0  0  0  0  0  0  0  0  0
   27.5390   65.0010   71.3740 C   0  0  0  0  0  0  0  0  0  0  0  0
   28.2990   66.1490   72.0490 C   0  0  0  0  0  0  0  0  0  0  0  0
   29.6150   66.2460   72.5010 C   0  0  0  0  0  0  0  0  0  0  0  0
   30.1020   67.4050   73.1510 C   0  0  0  0  0  0  0  0  0  0  0  0
   29.2090   68.4650   73.3540 C   0  0  0  0  0  0  0  0  0  0  0  0
   27.9050   68.4170   72.9110 C   0  0  0  0  0  0  0  0  0  0  0  0
   27.4330   67.2270   72.2630 C   0  0  0  0  0  0  0  0  0  0  0  0
   26.1020   66.8480   71.8310 N   0  0  0  0  0  0  0  0  0  0  0  0
   22.6140   67.7830   72.0860 O   0  0  0  0  0  0  0  0  0  0  0  0
   25.0060   68.7470   72.3900 O   0  0  0  0  0  0  0  0  0  0  0  0
   30.6100   64.8670   72.1950 Cl  0  0  0  0  0  0  0  0  0  0  0  0
   21.0441   67.0018   73.1730 H   0  0  0  0  0  0  0  0  0  0  0  0
   20.6046   67.7863   71.6180 H   0  0  0  0  0  0  0  0  0  0  0  0
   21.4049   66.1781   71.6180 H   0  0  0  0  0  0  0  0  0  0  0  0
   23.6085   66.7677   70.5808 H   0  0  0  0  0  0  0  0  0  0  0  0
   23.5846   65.9424   72.1527 H   0  0  0  0  0  0  0  0  0  0  0  0
   25.2325   64.8347   71.1711 H   0  0  0  0  0  0  0  0  0  0  0  0
   27.9472   64.0678   70.9586 H   0  0  0  0  0  0  0  0  0  0  0  0
   31.1477   67.4713   73.4859 H   0  0  0  0  0  0  0  0  0  0  0  0
   29.5595   69.3633   73.8833 H   0  0  0  0  0  0  0  0  0  0  0  0
   27.2357   69.2785   73.0521 H   0  0  0  0  0  0  0  0  0  0  0  0
  1 13  1  0
  2  3  1  0
  2 13  1  0
  3 12  1  0
  3 14  2  0
  4  5  2  0
  4 12  1  0
  5  6  1  0
  6  7  1  0
  6 11  2  0
  7  8  2  0
  7 15  1  0
  8  9  1  0
  9 10  2  0
 10 11  1  0
 11 12  1  0
  1 16  1  0
  1 17  1  0
  1 18  1  0
  2 19  1  0
  2 20  1  0
  4 21  1  0
  5 22  1  0
  8 23  1  0
  9 24  1  0
 10 25  1  0
M  END
>  <filename_input>  (26) 
8BTI_RFO_docked.sdf

>  <pdb_id>  (26) 
8BTI_RFO

>  <pose_rank>  (26) 
25

>  <num_atoms_heavy>  (26) 
15

>  <num_torsions>  (26) 
2

>  <pose>  (26) 
[24.925, 67.601, 72.025, 1e-06, 1e-06, 1e-06, 0.0, 0.0]

>  <energy>  (26) 
-766.1912520189652

>  <inter_energy>  (26) 
-773.946911459354

>  <intra_energy>  (26) 
0.0

>  <rmsd>  (26) 
0.0

>  <sdf_rank>  (26) 
0

$$$$
