
     RDKit          3D

 39 41  0  0  0  0  0  0  0  0999 V2000
   18.6759  -38.0361  -47.3166 P   0  0  2  0  0  0  0  0  0  0  0  0
   18.8124  -39.3299  -46.5557 O   0  0  0  0  0  0  0  0  0  0  0  0
   19.4200  -36.8941  -46.6700 O   0  0  0  0  0  0  0  0  0  0  0  0
   17.2467  -37.6879  -47.6518 O   0  0  0  0  0  0  0  0  0  0  0  0
   20.5491  -37.4087  -49.4602 P   0  0  1  0  0  0  0  0  0  0  0  0
   20.2010  -35.9648  -49.3116 O   0  0  0  0  0  0  0  0  0  0  0  0
   21.8875  -37.8669  -48.9852 O   0  0  0  0  0  0  0  0  0  0  0  0
   19.4190  -38.2752  -48.7271 O   0  0  0  0  0  0  0  0  0  0  0  0
   20.3394  -37.8281  -50.9921 O   0  0  0  0  0  0  0  0  0  0  0  0
   21.3789  -38.5022  -51.7349 C   0  0  0  0  0  0  0  0  0  0  0  0
   21.1447  -38.2473  -53.2029 C   0  0  1  0  0  0  0  0  0  0  0  0
   21.9009  -37.0731  -53.5971 O   0  0  0  0  0  0  0  0  0  0  0  0
   21.5674  -39.3689  -54.1644 C   0  0  1  0  0  0  0  0  0  0  0  0
   20.5721  -39.6016  -55.1502 O   0  0  0  0  0  0  0  0  0  0  0  0
   22.8335  -38.8077  -54.8137 C   0  0  1  0  0  0  0  0  0  0  0  0
   23.0756  -39.3239  -56.1037 O   0  0  0  0  0  0  0  0  0  0  0  0
   22.5260  -37.3153  -54.8327 C   0  0  2  0  0  0  0  0  0  0  0  0
   23.7359  -36.5113  -54.9259 N   0  0  0  0  0  0  0  0  0  0  0  0
   24.7541  -36.4652  -54.0082 C   0  0  0  0  0  0  0  0  0  0  0  0
   25.7375  -35.6787  -54.3625 N   0  0  0  0  0  0  0  0  0  0  0  0
   25.3495  -35.1746  -55.5947 C   0  0  0  0  0  0  0  0  0  0  0  0
   25.9684  -34.2811  -56.4892 C   0  0  0  0  0  0  0  0  0  0  0  0
   27.1523  -33.7166  -56.2703 N   0  0  0  0  0  0  0  0  0  0  0  0
   25.3082  -33.9856  -57.6327 N   0  0  0  0  0  0  0  0  0  0  0  0
   24.1181  -34.5580  -57.8478 C   0  0  0  0  0  0  0  0  0  0  0  0
   23.4426  -35.4107  -57.0820 N   0  0  0  0  0  0  0  0  0  0  0  0
   24.1180  -35.6846  -55.9555 C   0  0  0  0  0  0  0  0  0  0  0  0
   22.3630  -38.1087  -51.4403 H   0  0  0  0  0  0  0  0  0  0  0  0
   21.3575  -39.5821  -51.5269 H   0  0  0  0  0  0  0  0  0  0  0  0
   20.0530  -38.1443  -53.2901 H   0  0  0  0  0  0  0  0  0  0  0  0
   21.7205  -40.3320  -53.6554 H   0  0  0  0  0  0  0  0  0  0  0  0
   19.7099  -39.8032  -54.7074 H   0  0  0  0  0  0  0  0  0  0  0  0
   23.7548  -39.0723  -54.2740 H   0  0  0  0  0  0  0  0  0  0  0  0
   23.4946  -40.2176  -56.0282 H   0  0  0  0  0  0  0  0  0  0  0  0
   21.9078  -37.0475  -55.7023 H   0  0  0  0  0  0  0  0  0  0  0  0
   24.7447  -37.0338  -53.0666 H   0  0  0  0  0  0  0  0  0  0  0  0
   27.5511  -33.0702  -56.9660 H   0  0  0  0  0  0  0  0  0  0  0  0
   27.6706  -33.9259  -55.4052 H   0  0  0  0  0  0  0  0  0  0  0  0
   23.6278  -34.2843  -58.7937 H   0  0  0  0  0  0  0  0  0  0  0  0
  1  2  2  0
  1  3  1  1
  1  4  1  0
  1  8  1  0
  5  6  2  0
  5  7  1  1
  5  8  1  0
  5  9  1  0
  9 10  1  0
 11 10  1  0
 11 12  1  0
 11 13  1  0
 12 17  1  0
 13 14  1  0
 13 15  1  0
 15 16  1  0
 15 17  1  0
 17 18  1  0
 18 19  1  0
 18 27  1  0
 19 20  2  0
 20 21  1  0
 21 22  2  0
 21 27  1  0
 22 23  1  0
 22 24  1  0
 24 25  2  0
 25 26  1  0
 26 27  2  0
 10 28  1  0
 10 29  1  0
 11 30  1  1
 13 31  1  1
 14 32  1  0
 15 33  1  1
 16 34  1  0
 17 35  1  6
 19 36  1  0
 23 37  1  0
 23 38  1  0
 25 39  1  0
M  CHG  3   3  -1   4  -1   7  -1
M  END
>  <filename_input>  (1) 
8C3N_ADP_docked.sdf

>  <pdb_id>  (1) 
8C3N_ADP

>  <pose_rank>  (1) 
0

>  <num_atoms_heavy>  (1) 
27

>  <num_torsions>  (1) 
6

>  <pose>  (1) 
[21.14465448717744, -38.24730425367429, -53.20292440422731, -3.853952768731595, -2.89209869884302, 3.8859988530486715, 0.03672446343261562, 0.4983004884978205, 0.1593245624903164, -0.5617221297321473, 0.38096631539058917, 1.8031168911343591]

>  <energy>  (1) 
-622.3157822161492

>  <inter_energy>  (1) 
-611.4329182360431

>  <intra_energy>  (1) 
7.288088880368429

>  <rmsd>  (1) 
0.775146

>  <sdf_rank>  (1) 
0

$$$$

     RDKit          3D

 39 41  0  0  0  0  0  0  0  0999 V2000
   19.0143  -38.1447  -47.5286 P   0  0  2  0  0  0  0  0  0  0  0  0
   19.2767  -36.9945  -46.5905 O   0  0  0  0  0  0  0  0  0  0  0  0
   17.5455  -38.3576  -47.7990 O   0  0  0  0  0  0  0  0  0  0  0  0
   19.7260  -39.4142  -47.1311 O   0  0  0  0  0  0  0  0  0  0  0  0
   21.1692  -37.4844  -49.3773 P   0  0  1  0  0  0  0  0  0  0  0  0
   21.3354  -36.0599  -49.7910 O   0  0  0  0  0  0  0  0  0  0  0  0
   22.0531  -38.0162  -48.2989 O   0  0  0  0  0  0  0  0  0  0  0  0
   19.6425  -37.7070  -48.9473 O   0  0  0  0  0  0  0  0  0  0  0  0
   21.2793  -38.4094  -50.6806 O   0  0  0  0  0  0  0  0  0  0  0  0
   22.1203  -38.0389  -51.7953 C   0  0  0  0  0  0  0  0  0  0  0  0
   21.2266  -37.6834  -52.9571 C   0  0  1  0  0  0  0  0  0  0  0  0
   21.8666  -36.6367  -53.7322 O   0  0  0  0  0  0  0  0  0  0  0  0
   20.9142  -38.8163  -53.9470 C   0  0  1  0  0  0  0  0  0  0  0  0
   19.5355  -38.8343  -54.2874 O   0  0  0  0  0  0  0  0  0  0  0  0
   21.7558  -38.4477  -55.1699 C   0  0  1  0  0  0  0  0  0  0  0  0
   21.2264  -38.9394  -56.3811 O   0  0  0  0  0  0  0  0  0  0  0  0
   21.7354  -36.9254  -55.1017 C   0  0  2  0  0  0  0  0  0  0  0  0
   22.8494  -36.3331  -55.8276 N   0  0  0  0  0  0  0  0  0  0  0  0
   22.8349  -35.9039  -57.1301 C   0  0  0  0  0  0  0  0  0  0  0  0
   23.9700  -35.3818  -57.5177 N   0  0  0  0  0  0  0  0  0  0  0  0
   24.7878  -35.4661  -56.4010 C   0  0  0  0  0  0  0  0  0  0  0  0
   26.1216  -35.0779  -56.1732 C   0  0  0  0  0  0  0  0  0  0  0  0
   26.8934  -34.5071  -57.0934 N   0  0  0  0  0  0  0  0  0  0  0  0
   26.6369  -35.3074  -54.9433 N   0  0  0  0  0  0  0  0  0  0  0  0
   25.8547  -35.8806  -54.0213 C   0  0  0  0  0  0  0  0  0  0  0  0
   24.5911  -36.2844  -54.1216 N   0  0  0  0  0  0  0  0  0  0  0  0
   24.1063  -36.0470  -55.3499 C   0  0  0  0  0  0  0  0  0  0  0  0
   22.7405  -37.1723  -51.5228 H   0  0  0  0  0  0  0  0  0  0  0  0
   22.7843  -38.8730  -52.0660 H   0  0  0  0  0  0  0  0  0  0  0  0
   20.2741  -37.3945  -52.4888 H   0  0  0  0  0  0  0  0  0  0  0  0
   21.1384  -39.8130  -53.5394 H   0  0  0  0  0  0  0  0  0  0  0  0
   18.9915  -38.8414  -53.4603 H   0  0  0  0  0  0  0  0  0  0  0  0
   22.7640  -38.8872  -55.1542 H   0  0  0  0  0  0  0  0  0  0  0  0
   20.5152  -39.6000  -56.1863 H   0  0  0  0  0  0  0  0  0  0  0  0
   20.8189  -36.5192  -55.5545 H   0  0  0  0  0  0  0  0  0  0  0  0
   21.9550  -35.9901  -57.7846 H   0  0  0  0  0  0  0  0  0  0  0  0
   27.8628  -34.2464  -56.8627 H   0  0  0  0  0  0  0  0  0  0  0  0
   26.5218  -34.3257  -58.0367 H   0  0  0  0  0  0  0  0  0  0  0  0
   26.3239  -36.0410  -53.0394 H   0  0  0  0  0  0  0  0  0  0  0  0
  1  2  2  0
  1  3  1  6
  1  4  1  0
  1  8  1  0
  5  6  2  0
  5  7  1  1
  5  8  1  0
  5  9  1  0
  9 10  1  0
 11 10  1  0
 11 12  1  0
 11 13  1  0
 12 17  1  0
 13 14  1  0
 13 15  1  0
 15 16  1  0
 15 17  1  0
 17 18  1  0
 18 19  1  0
 18 27  1  0
 19 20  2  0
 20 21  1  0
 21 22  2  0
 21 27  1  0
 22 23  1  0
 22 24  1  0
 24 25  2  0
 25 26  1  0
 26 27  2  0
 10 28  1  0
 10 29  1  0
 11 30  1  1
 13 31  1  1
 14 32  1  0
 15 33  1  1
 16 34  1  0
 17 35  1  6
 19 36  1  0
 23 37  1  0
 23 38  1  0
 25 39  1  0
M  CHG  3   3  -1   4  -1   7  -1
M  END
>  <filename_input>  (2) 
8C3N_ADP_docked.sdf

>  <pdb_id>  (2) 
8C3N_ADP

>  <pose_rank>  (2) 
1

>  <num_atoms_heavy>  (2) 
27

>  <num_torsions>  (2) 
6

>  <pose>  (2) 
[21.22657187623232, -37.683366983032386, -52.9570519315159, -0.397328116338283, -5.169682883573239, 2.273201983381031, 2.760420596452356, 1.4494785121990192, 0.9590060943921342, -2.25131475080237, -0.9536459031667441, -1.0620494026280327]

>  <energy>  (2) 
-535.7106251705202

>  <inter_energy>  (2) 
-547.4362906881692

>  <intra_energy>  (2) 
21.979653735026552

>  <rmsd>  (2) 
1.94066

>  <sdf_rank>  (2) 
0

$$$$

     RDKit          3D

 39 41  0  0  0  0  0  0  0  0999 V2000
   19.2466  -38.0130  -47.4864 P   0  0  2  0  0  0  0  0  0  0  0  0
   19.0138  -37.1677  -46.2606 O   0  0  0  0  0  0  0  0  0  0  0  0
   17.9740  -38.3247  -48.2343 O   0  0  0  0  0  0  0  0  0  0  0  0
   20.0819  -39.2401  -47.2163 O   0  0  0  0  0  0  0  0  0  0  0  0
   20.5206  -37.3462  -50.0221 P   0  0  1  0  0  0  0  0  0  0  0  0
   19.7610  -38.5293  -50.5235 O   0  0  0  0  0  0  0  0  0  0  0  0
   20.3974  -36.0585  -50.7661 O   0  0  0  0  0  0  0  0  0  0  0  0
   20.1112  -37.0982  -48.4936 O   0  0  0  0  0  0  0  0  0  0  0  0
   22.0641  -37.7529  -49.8847 O   0  0  0  0  0  0  0  0  0  0  0  0
   22.6645  -38.7288  -50.7643 C   0  0  0  0  0  0  0  0  0  0  0  0
   24.1180  -38.8671  -50.3863 C   0  0  1  0  0  0  0  0  0  0  0  0
   24.9326  -38.4845  -51.5247 O   0  0  0  0  0  0  0  0  0  0  0  0
   24.6000  -38.0055  -49.2088 C   0  0  1  0  0  0  0  0  0  0  0  0
   25.4125  -38.7591  -48.3207 O   0  0  0  0  0  0  0  0  0  0  0  0
   25.4315  -36.9196  -49.8935 C   0  0  1  0  0  0  0  0  0  0  0  0
   26.4406  -36.3841  -49.0664 O   0  0  0  0  0  0  0  0  0  0  0  0
   25.9993  -37.6815  -51.0849 C   0  0  2  0  0  0  0  0  0  0  0  0
   26.4041  -36.7875  -52.1599 N   0  0  0  0  0  0  0  0  0  0  0  0
   26.8864  -35.5114  -52.0180 C   0  0  0  0  0  0  0  0  0  0  0  0
   27.2030  -34.9464  -53.1546 N   0  0  0  0  0  0  0  0  0  0  0  0
   26.9168  -35.9095  -54.1103 C   0  0  0  0  0  0  0  0  0  0  0  0
   27.0372  -35.9161  -55.5128 C   0  0  0  0  0  0  0  0  0  0  0  0
   27.4937  -34.8875  -56.2210 N   0  0  0  0  0  0  0  0  0  0  0  0
   26.6600  -37.0395  -56.1661 N   0  0  0  0  0  0  0  0  0  0  0  0
   26.2030  -38.0716  -55.4477 C   0  0  0  0  0  0  0  0  0  0  0  0
   26.0484  -38.1787  -54.1307 N   0  0  0  0  0  0  0  0  0  0  0  0
   26.4275  -37.0520  -53.5086 C   0  0  0  0  0  0  0  0  0  0  0  0
   22.1555  -39.6972  -50.6499 H   0  0  0  0  0  0  0  0  0  0  0  0
   22.5717  -38.4065  -51.8119 H   0  0  0  0  0  0  0  0  0  0  0  0
   24.2199  -39.9181  -50.0779 H   0  0  0  0  0  0  0  0  0  0  0  0
   23.7718  -37.6119  -48.6011 H   0  0  0  0  0  0  0  0  0  0  0  0
   25.1734  -38.5373  -47.3860 H   0  0  0  0  0  0  0  0  0  0  0  0
   24.8468  -36.0281  -50.1643 H   0  0  0  0  0  0  0  0  0  0  0  0
   26.1933  -36.5154  -48.1169 H   0  0  0  0  0  0  0  0  0  0  0  0
   26.8961  -38.2520  -50.8015 H   0  0  0  0  0  0  0  0  0  0  0  0
   26.9963  -35.0122  -51.0440 H   0  0  0  0  0  0  0  0  0  0  0  0
   27.5573  -34.9562  -57.2468 H   0  0  0  0  0  0  0  0  0  0  0  0
   27.7838  -34.0220  -55.7439 H   0  0  0  0  0  0  0  0  0  0  0  0
   25.9135  -38.9591  -56.0296 H   0  0  0  0  0  0  0  0  0  0  0  0
  1  2  2  0
  1  3  1  6
  1  4  1  0
  1  8  1  0
  5  6  2  0
  5  7  1  6
  5  8  1  0
  5  9  1  0
  9 10  1  0
 11 10  1  0
 11 12  1  0
 11 13  1  0
 12 17  1  0
 13 14  1  0
 13 15  1  0
 15 16  1  0
 15 17  1  0
 17 18  1  0
 18 19  1  0
 18 27  1  0
 19 20  2  0
 20 21  1  0
 21 22  2  0
 21 27  1  0
 22 23  1  0
 22 24  1  0
 24 25  2  0
 25 26  1  0
 26 27  2  0
 10 28  1  0
 10 29  1  0
 11 30  1  1
 13 31  1  1
 14 32  1  0
 15 33  1  6
 16 34  1  0
 17 35  1  1
 19 36  1  0
 23 37  1  0
 23 38  1  0
 25 39  1  0
M  CHG  3   3  -1   4  -1   7  -1
M  END
>  <filename_input>  (3) 
8C3N_ADP_docked.sdf

>  <pdb_id>  (3) 
8C3N_ADP

>  <pose_rank>  (3) 
2

>  <num_atoms_heavy>  (3) 
27

>  <num_torsions>  (3) 
6

>  <pose>  (3) 
[24.118033692458866, -38.86711370606577, -50.386260615436534, 2.5870108244763292, 2.0458013569116975, -1.9426843247988366, -4.608398862195873, 3.095495831079437, -0.261936117680867, 4.019776211831175, 1.281042098437221, 1.0521124691414645]

>  <energy>  (3) 
-429.15567200527414

>  <inter_energy>  (3) 
-449.88382353146045

>  <intra_energy>  (3) 
27.510370932193734

>  <rmsd>  (3) 
4.30171

>  <sdf_rank>  (3) 
0

$$$$

     RDKit          3D

 39 41  0  0  0  0  0  0  0  0999 V2000
   18.7689  -38.2381  -47.6259 P   0  0  2  0  0  0  0  0  0  0  0  0
   19.5835  -39.4432  -47.2311 O   0  0  0  0  0  0  0  0  0  0  0  0
   19.1324  -37.0018  -46.8413 O   0  0  0  0  0  0  0  0  0  0  0  0
   17.2836  -38.5018  -47.6472 O   0  0  0  0  0  0  0  0  0  0  0  0
   20.5877  -38.0855  -49.8988 P   0  0  1  0  0  0  0  0  0  0  0  0
   21.3119  -36.7811  -49.8548 O   0  0  0  0  0  0  0  0  0  0  0  0
   21.2721  -39.2941  -49.3529 O   0  0  0  0  0  0  0  0  0  0  0  0
   19.1845  -37.9059  -49.1476 O   0  0  0  0  0  0  0  0  0  0  0  0
   20.1184  -38.3569  -51.4063 O   0  0  0  0  0  0  0  0  0  0  0  0
   20.5097  -37.4783  -52.4841 C   0  0  0  0  0  0  0  0  0  0  0  0
   21.0706  -38.3262  -53.5982 C   0  0  1  0  0  0  0  0  0  0  0  0
   21.8540  -37.4786  -54.4779 O   0  0  0  0  0  0  0  0  0  0  0  0
   21.9985  -39.4763  -53.1771 C   0  0  1  0  0  0  0  0  0  0  0  0
   21.6871  -40.6702  -53.8802 O   0  0  0  0  0  0  0  0  0  0  0  0
   23.3830  -38.9692  -53.5838 C   0  0  1  0  0  0  0  0  0  0  0  0
   24.2970  -40.0057  -53.8656 O   0  0  0  0  0  0  0  0  0  0  0  0
   23.0489  -38.1374  -54.8162 C   0  0  2  0  0  0  0  0  0  0  0  0
   24.0791  -37.1495  -55.1018 N   0  0  0  0  0  0  0  0  0  0  0  0
   24.2161  -36.4295  -56.2611 C   0  0  0  0  0  0  0  0  0  0  0  0
   25.2155  -35.5858  -56.2336 N   0  0  0  0  0  0  0  0  0  0  0  0
   25.7740  -35.7534  -54.9755 C   0  0  0  0  0  0  0  0  0  0  0  0
   26.8693  -35.1415  -54.3372 C   0  0  0  0  0  0  0  0  0  0  0  0
   27.6249  -34.2038  -54.9010 N   0  0  0  0  0  0  0  0  0  0  0  0
   27.1613  -35.5422  -53.0781 N   0  0  0  0  0  0  0  0  0  0  0  0
   26.3963  -36.4849  -52.5157 C   0  0  0  0  0  0  0  0  0  0  0  0
   25.3447  -37.1268  -53.0177 N   0  0  0  0  0  0  0  0  0  0  0  0
   25.0788  -36.7123  -54.2657 C   0  0  0  0  0  0  0  0  0  0  0  0
   19.6344  -36.9187  -52.8456 H   0  0  0  0  0  0  0  0  0  0  0  0
   21.2650  -36.7589  -52.1348 H   0  0  0  0  0  0  0  0  0  0  0  0
   20.1851  -38.7826  -54.0646 H   0  0  0  0  0  0  0  0  0  0  0  0
   21.9138  -39.7234  -52.1086 H   0  0  0  0  0  0  0  0  0  0  0  0
   21.4981  -41.3948  -53.2327 H   0  0  0  0  0  0  0  0  0  0  0  0
   23.8945  -38.4101  -52.7865 H   0  0  0  0  0  0  0  0  0  0  0  0
   24.6342  -40.3880  -53.0170 H   0  0  0  0  0  0  0  0  0  0  0  0
   22.9680  -38.7694  -55.7129 H   0  0  0  0  0  0  0  0  0  0  0  0
   23.5508  -36.5497  -57.1289 H   0  0  0  0  0  0  0  0  0  0  0  0
   28.4134  -33.7951  -54.3793 H   0  0  0  0  0  0  0  0  0  0  0  0
   27.4216  -33.8860  -55.8595 H   0  0  0  0  0  0  0  0  0  0  0  0
   26.6773  -36.7702  -51.4911 H   0  0  0  0  0  0  0  0  0  0  0  0
  1  2  2  0
  1  3  1  1
  1  4  1  0
  1  8  1  0
  5  6  2  0
  5  7  1  1
  5  8  1  0
  5  9  1  0
  9 10  1  0
 11 10  1  0
 11 12  1  0
 11 13  1  0
 12 17  1  0
 13 14  1  0
 13 15  1  0
 15 16  1  0
 15 17  1  0
 17 18  1  0
 18 19  1  0
 18 27  1  0
 19 20  2  0
 20 21  1  0
 21 22  2  0
 21 27  1  0
 22 23  1  0
 22 24  1  0
 24 25  2  0
 25 26  1  0
 26 27  2  0
 10 28  1  0
 10 29  1  0
 11 30  1  6
 13 31  1  1
 14 32  1  0
 15 33  1  1
 16 34  1  0
 17 35  1  6
 19 36  1  0
 23 37  1  0
 23 38  1  0
 25 39  1  0
M  CHG  3   3  -1   4  -1   7  -1
M  END
>  <filename_input>  (4) 
8C3N_ADP_docked.sdf

>  <pdb_id>  (4) 
8C3N_ADP

>  <pose_rank>  (4) 
3

>  <num_atoms_heavy>  (4) 
27

>  <num_torsions>  (4) 
6

>  <pose>  (4) 
[21.07058185908247, -38.32624159615761, -53.59819330241128, 4.406135894687857, 2.753691317048481, -1.3495213323327535, 4.031786163668412, 27.48146435578823, 24.008914815413952, 3.5744698427887753, -0.5630098384624114, 3.4666303710592845]

>  <energy>  (4) 
-423.1881739338982

>  <inter_energy>  (4) 
-473.22392109516784

>  <intra_energy>  (4) 
46.17566845052822

>  <rmsd>  (4) 
2.53709

>  <sdf_rank>  (4) 
0

$$$$

     RDKit          3D

 39 41  0  0  0  0  0  0  0  0999 V2000
   25.2089  -41.4945  -50.8223 P   0  0  2  0  0  0  0  0  0  0  0  0
   25.1277  -42.9780  -51.0756 O   0  0  0  0  0  0  0  0  0  0  0  0
   25.1098  -40.6774  -52.0866 O   0  0  0  0  0  0  0  0  0  0  0  0
   26.3822  -41.0987  -49.9604 O   0  0  0  0  0  0  0  0  0  0  0  0
   23.1522  -39.7113  -49.7795 P   0  0  1  0  0  0  0  0  0  0  0  0
   22.1647  -39.8514  -48.6690 O   0  0  0  0  0  0  0  0  0  0  0  0
   24.1865  -38.6405  -49.6764 O   0  0  0  0  0  0  0  0  0  0  0  0
   23.8884  -41.1200  -49.9768 O   0  0  0  0  0  0  0  0  0  0  0  0
   22.3503  -39.5661  -51.1588 O   0  0  0  0  0  0  0  0  0  0  0  0
   21.6346  -38.3551  -51.4872 C   0  0  0  0  0  0  0  0  0  0  0  0
   21.4647  -38.3042  -52.9850 C   0  0  1  0  0  0  0  0  0  0  0  0
   22.2138  -37.1726  -53.4994 O   0  0  0  0  0  0  0  0  0  0  0  0
   21.9561  -39.5317  -53.7678 C   0  0  1  0  0  0  0  0  0  0  0  0
   21.0136  -39.9205  -54.7564 O   0  0  0  0  0  0  0  0  0  0  0  0
   23.2394  -39.0276  -54.4301 C   0  0  1  0  0  0  0  0  0  0  0  0
   23.5530  -39.7039  -55.6273 O   0  0  0  0  0  0  0  0  0  0  0  0
   22.9016  -37.5598  -54.6626 C   0  0  2  0  0  0  0  0  0  0  0  0
   24.0973  -36.7428  -54.8093 N   0  0  0  0  0  0  0  0  0  0  0  0
   25.1234  -36.6336  -53.9058 C   0  0  0  0  0  0  0  0  0  0  0  0
   26.0905  -35.8509  -54.3101 N   0  0  0  0  0  0  0  0  0  0  0  0
   25.6825  -35.4169  -55.5623 C   0  0  0  0  0  0  0  0  0  0  0  0
   26.2782  -34.5608  -56.5077 C   0  0  0  0  0  0  0  0  0  0  0  0
   27.4548  -33.9672  -56.3303 N   0  0  0  0  0  0  0  0  0  0  0  0
   25.6024  -34.3347  -57.6579 N   0  0  0  0  0  0  0  0  0  0  0  0
   24.4197  -34.9361  -57.8311 C   0  0  0  0  0  0  0  0  0  0  0  0
   23.7656  -35.7590  -57.0157 N   0  0  0  0  0  0  0  0  0  0  0  0
   24.4561  -35.9640  -55.8838 C   0  0  0  0  0  0  0  0  0  0  0  0
   20.6485  -38.3608  -50.9999 H   0  0  0  0  0  0  0  0  0  0  0  0
   22.1931  -37.4747  -51.1364 H   0  0  0  0  0  0  0  0  0  0  0  0
   20.3764  -38.2435  -53.1332 H   0  0  0  0  0  0  0  0  0  0  0  0
   22.1052  -40.4141  -53.1281 H   0  0  0  0  0  0  0  0  0  0  0  0
   20.1939  -40.2586  -54.3160 H   0  0  0  0  0  0  0  0  0  0  0  0
   24.1394  -39.1929  -53.8197 H   0  0  0  0  0  0  0  0  0  0  0  0
   23.9597  -40.5810  -55.4140 H   0  0  0  0  0  0  0  0  0  0  0  0
   22.3197  -37.4270  -55.5866 H   0  0  0  0  0  0  0  0  0  0  0  0
   25.1322  -37.1533  -52.9363 H   0  0  0  0  0  0  0  0  0  0  0  0
   27.8363  -33.3511  -57.0623 H   0  0  0  0  0  0  0  0  0  0  0  0
   27.9847  -34.1236  -55.4611 H   0  0  0  0  0  0  0  0  0  0  0  0
   23.9161  -34.7190  -58.7846 H   0  0  0  0  0  0  0  0  0  0  0  0
  1  2  2  0
  1  3  1  6
  1  4  1  0
  1  8  1  0
  5  6  2  0
  5  7  1  1
  5  8  1  0
  5  9  1  0
  9 10  1  0
 11 10  1  0
 11 12  1  0
 11 13  1  0
 12 17  1  0
 13 14  1  0
 13 15  1  0
 15 16  1  0
 15 17  1  0
 17 18  1  0
 18 19  1  0
 18 27  1  0
 19 20  2  0
 20 21  1  0
 21 22  2  0
 21 27  1  0
 22 23  1  0
 22 24  1  0
 24 25  2  0
 25 26  1  0
 26 27  2  0
 10 28  1  0
 10 29  1  0
 11 30  1  1
 13 31  1  1
 14 32  1  0
 15 33  1  1
 16 34  1  0
 17 35  1  6
 19 36  1  0
 23 37  1  0
 23 38  1  0
 25 39  1  0
M  CHG  3   3  -1   4  -1   7  -1
M  END
>  <filename_input>  (5) 
8C3N_ADP_docked.sdf

>  <pdb_id>  (5) 
8C3N_ADP

>  <pose_rank>  (5) 
4

>  <num_atoms_heavy>  (5) 
27

>  <num_torsions>  (5) 
6

>  <pose>  (5) 
[21.464723401543342, -38.304186103014594, -52.984999618956905, 5.590685839218601, 0.4181847734213277, 2.6470486888012297, 0.13687165723851627, -3.1200084468486198, -6.914680954184906, -1.5426603100099368, -1.811627110891276, -5.0141477735102455]

>  <energy>  (5) 
-350.96076424761424

>  <inter_energy>  (5) 
-349.05236869879377

>  <intra_energy>  (5) 
4.83459624088414

>  <rmsd>  (5) 
3.69491

>  <sdf_rank>  (5) 
0

$$$$

     RDKit          3D

 39 41  0  0  0  0  0  0  0  0999 V2000
   19.8814  -39.5860  -45.0375 P   0  0  2  0  0  0  0  0  0  0  0  0
   19.1951  -40.8496  -44.5857 O   0  0  0  0  0  0  0  0  0  0  0  0
   21.3408  -39.5432  -44.6575 O   0  0  0  0  0  0  0  0  0  0  0  0
   19.1389  -38.3313  -44.6495 O   0  0  0  0  0  0  0  0  0  0  0  0
   19.3614  -38.5436  -47.7096 P   0  0  1  0  0  0  0  0  0  0  0  0
   17.8743  -38.6359  -47.7983 O   0  0  0  0  0  0  0  0  0  0  0  0
   19.9700  -37.2237  -47.3711 O   0  0  0  0  0  0  0  0  0  0  0  0
   19.8691  -39.6311  -46.6488 O   0  0  0  0  0  0  0  0  0  0  0  0
   19.9886  -39.1012  -49.0742 O   0  0  0  0  0  0  0  0  0  0  0  0
   21.3187  -38.7282  -49.4966 C   0  0  0  0  0  0  0  0  0  0  0  0
   21.4044  -38.9156  -50.9907 C   0  0  1  0  0  0  0  0  0  0  0  0
   22.2339  -37.8613  -51.5443 O   0  0  0  0  0  0  0  0  0  0  0  0
   22.0162  -40.2387  -51.4768 C   0  0  1  0  0  0  0  0  0  0  0  0
   21.2527  -40.7984  -52.5353 O   0  0  0  0  0  0  0  0  0  0  0  0
   23.3948  -39.8148  -51.9861 C   0  0  1  0  0  0  0  0  0  0  0  0
   23.9034  -40.6623  -52.9921 O   0  0  0  0  0  0  0  0  0  0  0  0
   23.1068  -38.4094  -52.5003 C   0  0  2  0  0  0  0  0  0  0  0  0
   24.3132  -37.5982  -52.5718 N   0  0  0  0  0  0  0  0  0  0  0  0
   25.3316  -37.5729  -51.6535 C   0  0  0  0  0  0  0  0  0  0  0  0
   26.3116  -36.7728  -51.9865 N   0  0  0  0  0  0  0  0  0  0  0  0
   25.9208  -36.2368  -53.2043 C   0  0  0  0  0  0  0  0  0  0  0  0
   26.5357  -35.3166  -54.0741 C   0  0  0  0  0  0  0  0  0  0  0  0
   27.7172  -34.7533  -53.8404 N   0  0  0  0  0  0  0  0  0  0  0  0
   25.8737  -34.9927  -55.2090 N   0  0  0  0  0  0  0  0  0  0  0  0
   24.6859  -35.5640  -55.4393 C   0  0  0  0  0  0  0  0  0  0  0  0
   24.0144  -36.4402  -54.6969 N   0  0  0  0  0  0  0  0  0  0  0  0
   24.6914  -36.7419  -53.5785 C   0  0  0  0  0  0  0  0  0  0  0  0
   21.5098  -37.6755  -49.2410 H   0  0  0  0  0  0  0  0  0  0  0  0
   22.0692  -39.3529  -48.9900 H   0  0  0  0  0  0  0  0  0  0  0  0
   20.3570  -38.9037  -51.3266 H   0  0  0  0  0  0  0  0  0  0  0  0
   22.0517  -41.0067  -50.6901 H   0  0  0  0  0  0  0  0  0  0  0  0
   20.5142  -41.3398  -52.1590 H   0  0  0  0  0  0  0  0  0  0  0  0
   24.1782  -39.8622  -51.2154 H   0  0  0  0  0  0  0  0  0  0  0  0
   24.3651  -41.4315  -52.5733 H   0  0  0  0  0  0  0  0  0  0  0  0
   22.6897  -38.4358  -53.5178 H   0  0  0  0  0  0  0  0  0  0  0  0
   25.3250  -38.1670  -50.7278 H   0  0  0  0  0  0  0  0  0  0  0  0
   28.1130  -34.0863  -54.5182 H   0  0  0  0  0  0  0  0  0  0  0  0
   28.2368  -34.9839  -52.9814 H   0  0  0  0  0  0  0  0  0  0  0  0
   24.1941  -35.2666  -56.3772 H   0  0  0  0  0  0  0  0  0  0  0  0
  1  2  2  0
  1  3  1  1
  1  4  1  0
  1  8  1  0
  5  6  2  0
  5  7  1  1
  5  8  1  0
  5  9  1  0
  9 10  1  0
 11 10  1  0
 11 12  1  0
 11 13  1  0
 12 17  1  0
 13 14  1  0
 13 15  1  0
 15 16  1  0
 15 17  1  0
 17 18  1  0
 18 19  1  0
 18 27  1  0
 19 20  2  0
 20 21  1  0
 21 22  2  0
 21 27  1  0
 22 23  1  0
 22 24  1  0
 24 25  2  0
 25 26  1  0
 26 27  2  0
 10 28  1  0
 10 29  1  0
 11 30  1  6
 13 31  1  1
 14 32  1  0
 15 33  1  1
 16 34  1  0
 17 35  1  6
 19 36  1  0
 23 37  1  0
 23 38  1  0
 25 39  1  0
M  CHG  3   3  -1   4  -1   7  -1
M  END
>  <filename_input>  (6) 
8C3N_ADP_docked.sdf

>  <pdb_id>  (6) 
8C3N_ADP

>  <pose_rank>  (6) 
5

>  <num_atoms_heavy>  (6) 
27

>  <num_torsions>  (6) 
6

>  <pose>  (6) 
[21.40438378618446, -38.915570279997795, -50.99070408659717, 4.706179737729273, 3.6484188765779373, 0.6501236188203224, 6.706889173747034, -11.17232057605631, 0.15147834324879608, -6.332492060969613, -0.2742491993601426, -0.015319290261528621]

>  <energy>  (6) 
-432.1288533455257

>  <inter_energy>  (6) 
-425.55281569990666

>  <intra_energy>  (6) 
3.600068922650838

>  <rmsd>  (6) 
3.23133

>  <sdf_rank>  (6) 
0

$$$$

     RDKit          3D

 39 41  0  0  0  0  0  0  0  0999 V2000
   22.1340  -38.3285  -49.8905 P   0  0  2  0  0  0  0  0  0  0  0  0
   21.9465  -37.8882  -48.4613 O   0  0  0  0  0  0  0  0  0  0  0  0
   22.1634  -39.8291  -50.0428 O   0  0  0  0  0  0  0  0  0  0  0  0
   23.2914  -37.6478  -50.5785 O   0  0  0  0  0  0  0  0  0  0  0  0
   20.3043  -38.1958  -52.1559 P   0  0  1  0  0  0  0  0  0  0  0  0
   20.7383  -39.5848  -52.4879 O   0  0  0  0  0  0  0  0  0  0  0  0
   18.8528  -37.8642  -52.2571 O   0  0  0  0  0  0  0  0  0  0  0  0
   20.8078  -37.8536  -50.6743 O   0  0  0  0  0  0  0  0  0  0  0  0
   21.1624  -37.1697  -53.0373 O   0  0  0  0  0  0  0  0  0  0  0  0
   22.1622  -37.6352  -53.9704 C   0  0  0  0  0  0  0  0  0  0  0  0
   22.0475  -36.8107  -55.2282 C   0  0  1  0  0  0  0  0  0  0  0  0
   23.1719  -35.8952  -55.2877 O   0  0  0  0  0  0  0  0  0  0  0  0
   22.0595  -37.5870  -56.5542 C   0  0  1  0  0  0  0  0  0  0  0  0
   21.0561  -37.1082  -57.4378 O   0  0  0  0  0  0  0  0  0  0  0  0
   23.4487  -37.2847  -57.1184 C   0  0  1  0  0  0  0  0  0  0  0  0
   23.5074  -37.3550  -58.5258 O   0  0  0  0  0  0  0  0  0  0  0  0
   23.6850  -35.8727  -56.5963 C   0  0  2  0  0  0  0  0  0  0  0  0
   25.1010  -35.5384  -56.5525 N   0  0  0  0  0  0  0  0  0  0  0  0
   25.7125  -34.5022  -57.2109 C   0  0  0  0  0  0  0  0  0  0  0  0
   26.9946  -34.4155  -56.9659 N   0  0  0  0  0  0  0  0  0  0  0  0
   27.2490  -35.4570  -56.0864 C   0  0  0  0  0  0  0  0  0  0  0  0
   28.4280  -35.8954  -55.4545 C   0  0  0  0  0  0  0  0  0  0  0  0
   29.6143  -35.3178  -55.6190 N   0  0  0  0  0  0  0  0  0  0  0  0
   28.3354  -36.9699  -54.6373 N   0  0  0  0  0  0  0  0  0  0  0  0
   27.1386  -37.5458  -54.4746 C   0  0  0  0  0  0  0  0  0  0  0  0
   25.9668  -37.2203  -55.0138 N   0  0  0  0  0  0  0  0  0  0  0  0
   26.0875  -36.1546  -55.8198 C   0  0  0  0  0  0  0  0  0  0  0  0
   23.1647  -37.5133  -53.5345 H   0  0  0  0  0  0  0  0  0  0  0  0
   22.0063  -38.7003  -54.1967 H   0  0  0  0  0  0  0  0  0  0  0  0
   21.0625  -36.3278  -55.1478 H   0  0  0  0  0  0  0  0  0  0  0  0
   21.8594  -38.6605  -56.4220 H   0  0  0  0  0  0  0  0  0  0  0  0
   20.2988  -36.7469  -56.9124 H   0  0  0  0  0  0  0  0  0  0  0  0
   24.2127  -38.0139  -56.8109 H   0  0  0  0  0  0  0  0  0  0  0  0
   24.1180  -38.0865  -58.7944 H   0  0  0  0  0  0  0  0  0  0  0  0
   23.2092  -35.1234  -57.2460 H   0  0  0  0  0  0  0  0  0  0  0  0
   25.1773  -33.8117  -57.8793 H   0  0  0  0  0  0  0  0  0  0  0  0
   30.4400  -35.6879  -55.1269 H   0  0  0  0  0  0  0  0  0  0  0  0
   29.7076  -34.5003  -56.2386 H   0  0  0  0  0  0  0  0  0  0  0  0
   27.1212  -38.4129  -53.7980 H   0  0  0  0  0  0  0  0  0  0  0  0
  1  2  2  0
  1  3  1  1
  1  4  1  0
  1  8  1  0
  5  6  2  0
  5  7  1  1
  5  8  1  0
  5  9  1  0
  9 10  1  0
 11 10  1  0
 11 12  1  0
 11 13  1  0
 12 17  1  0
 13 14  1  0
 13 15  1  0
 15 16  1  0
 15 17  1  0
 17 18  1  0
 18 19  1  0
 18 27  1  0
 19 20  2  0
 20 21  1  0
 21 22  2  0
 21 27  1  0
 22 23  1  0
 22 24  1  0
 24 25  2  0
 25 26  1  0
 26 27  2  0
 10 28  1  0
 10 29  1  0
 11 30  1  1
 13 31  1  1
 14 32  1  0
 15 33  1  1
 16 34  1  0
 17 35  1  6
 19 36  1  0
 23 37  1  0
 23 38  1  0
 25 39  1  0
M  CHG  3   3  -1   4  -1   7  -1
M  END
>  <filename_input>  (7) 
8C3N_ADP_docked.sdf

>  <pdb_id>  (7) 
8C3N_ADP

>  <pose_rank>  (7) 
6

>  <num_atoms_heavy>  (7) 
27

>  <num_torsions>  (7) 
6

>  <pose>  (7) 
[22.047519930482267, -36.810740599536125, -55.228151815659736, -4.050878843974242, -0.9338379944530665, 3.876031825108035, -3.049419317319908, -5.533910579988595, -0.974777868925425, -2.802909290765499, -4.5928860403373015, 1.070094442866582]

>  <energy>  (7) 
-359.0672996832345

>  <inter_energy>  (7) 
-369.5243941013032

>  <intra_energy>  (7) 
19.69570504054827

>  <rmsd>  (7) 
3.53571

>  <sdf_rank>  (7) 
0

$$$$

     RDKit          3D

 39 41  0  0  0  0  0  0  0  0999 V2000
   25.9987  -35.1814  -56.0616 P   0  0  2  0  0  0  0  0  0  0  0  0
   25.3658  -36.2269  -56.9436 O   0  0  0  0  0  0  0  0  0  0  0  0
   24.9899  -34.2411  -55.4500 O   0  0  0  0  0  0  0  0  0  0  0  0
   27.1472  -34.4588  -56.7213 O   0  0  0  0  0  0  0  0  0  0  0  0
   27.3270  -35.4361  -53.4793 P   0  0  1  0  0  0  0  0  0  0  0  0
   28.5269  -36.2778  -53.1971 O   0  0  0  0  0  0  0  0  0  0  0  0
   27.5108  -33.9605  -53.6047 O   0  0  0  0  0  0  0  0  0  0  0  0
   26.6335  -35.9832  -54.8155 O   0  0  0  0  0  0  0  0  0  0  0  0
   26.2095  -35.7564  -52.3770 O   0  0  0  0  0  0  0  0  0  0  0  0
   25.2247  -36.7924  -52.5853 C   0  0  0  0  0  0  0  0  0  0  0  0
   25.2814  -37.7345  -51.4088 C   0  0  1  0  0  0  0  0  0  0  0  0
   24.3888  -37.2421  -50.3759 O   0  0  0  0  0  0  0  0  0  0  0  0
   24.8598  -39.1872  -51.6792 C   0  0  1  0  0  0  0  0  0  0  0  0
   25.7633  -40.1036  -51.0786 O   0  0  0  0  0  0  0  0  0  0  0  0
   23.4888  -39.2793  -51.0072 C   0  0  1  0  0  0  0  0  0  0  0  0
   23.1593  -40.5846  -50.5870 O   0  0  0  0  0  0  0  0  0  0  0  0
   23.6616  -38.3179  -49.8375 C   0  0  2  0  0  0  0  0  0  0  0  0
   22.3832  -37.8330  -49.3382 N   0  0  0  0  0  0  0  0  0  0  0  0
   21.7193  -36.7092  -49.7593 C   0  0  0  0  0  0  0  0  0  0  0  0
   20.5712  -36.5284  -49.1587 N   0  0  0  0  0  0  0  0  0  0  0  0
   20.4647  -37.6020  -48.2875 C   0  0  0  0  0  0  0  0  0  0  0  0
   19.4683  -37.9788  -47.3673 C   0  0  0  0  0  0  0  0  0  0  0  0
   18.3494  -37.2896  -47.1650 N   0  0  0  0  0  0  0  0  0  0  0  0
   19.6752  -39.1083  -46.6514 N   0  0  0  0  0  0  0  0  0  0  0  0
   20.8023  -39.7982  -46.8608 C   0  0  0  0  0  0  0  0  0  0  0  0
   21.8042  -39.5414  -47.6974 N   0  0  0  0  0  0  0  0  0  0  0  0
   21.5746  -38.4169  -48.3922 C   0  0  0  0  0  0  0  0  0  0  0  0
   24.2223  -36.3453  -52.6573 H   0  0  0  0  0  0  0  0  0  0  0  0
   25.4335  -37.3351  -53.5191 H   0  0  0  0  0  0  0  0  0  0  0  0
   26.3449  -37.7557  -51.1286 H   0  0  0  0  0  0  0  0  0  0  0  0
   24.8451  -39.4348  -52.7508 H   0  0  0  0  0  0  0  0  0  0  0  0
   25.6961  -40.0355  -50.0933 H   0  0  0  0  0  0  0  0  0  0  0  0
   22.6555  -39.0275  -51.6797 H   0  0  0  0  0  0  0  0  0  0  0  0
   23.1503  -40.6204  -49.5977 H   0  0  0  0  0  0  0  0  0  0  0  0
   24.1600  -38.8093  -48.9889 H   0  0  0  0  0  0  0  0  0  0  0  0
   22.1135  -36.0268  -50.5267 H   0  0  0  0  0  0  0  0  0  0  0  0
   17.6588  -37.6196  -46.4757 H   0  0  0  0  0  0  0  0  0  0  0  0
   18.1732  -36.4257  -47.6974 H   0  0  0  0  0  0  0  0  0  0  0  0
   20.9169  -40.7085  -46.2540 H   0  0  0  0  0  0  0  0  0  0  0  0
  1  2  2  0
  1  3  1  1
  1  4  1  0
  1  8  1  0
  5  6  2  0
  5  7  1  6
  5  8  1  0
  5  9  1  0
  9 10  1  0
 11 10  1  0
 11 12  1  0
 11 13  1  0
 12 17  1  0
 13 14  1  0
 13 15  1  0
 15 16  1  0
 15 17  1  0
 17 18  1  0
 18 19  1  0
 18 27  1  0
 19 20  2  0
 20 21  1  0
 21 22  2  0
 21 27  1  0
 22 23  1  0
 22 24  1  0
 24 25  2  0
 25 26  1  0
 26 27  2  0
 10 28  1  0
 10 29  1  0
 11 30  1  1
 13 31  1  6
 14 32  1  0
 15 33  1  6
 16 34  1  0
 17 35  1  1
 19 36  1  0
 23 37  1  0
 23 38  1  0
 25 39  1  0
M  CHG  3   3  -1   4  -1   7  -1
M  END
>  <filename_input>  (8) 
8C3N_ADP_docked.sdf

>  <pdb_id>  (8) 
8C3N_ADP

>  <pose_rank>  (8) 
7

>  <num_atoms_heavy>  (8) 
27

>  <num_torsions>  (8) 
6

>  <pose>  (8) 
[25.281390442637036, -37.734493731868916, -51.40880515281926, 0.16848694341321915, -3.0031857359824197, -1.2533622155171926, -0.4525895293248196, 0.4274595713507733, -1.1955137288226074, 1.8994830612004603, -1.3010290744512156, 1.0047151636796874]

>  <energy>  (8) 
-459.74743846592355

>  <inter_energy>  (8) 
-457.58144169273453

>  <intra_energy>  (8) 
4.950328791463269

>  <rmsd>  (8) 
8.96447

>  <sdf_rank>  (8) 
0

$$$$

     RDKit          3D

 39 41  0  0  0  0  0  0  0  0999 V2000
   26.4368  -34.6245  -56.5539 P   0  0  2  0  0  0  0  0  0  0  0  0
   27.6761  -35.4012  -56.1901 O   0  0  0  0  0  0  0  0  0  0  0  0
   26.5683  -33.8910  -57.8657 O   0  0  0  0  0  0  0  0  0  0  0  0
   25.9357  -33.7417  -55.4377 O   0  0  0  0  0  0  0  0  0  0  0  0
   24.0345  -35.7045  -57.8028 P   0  0  1  0  0  0  0  0  0  0  0  0
   23.5446  -34.2986  -57.9099 O   0  0  0  0  0  0  0  0  0  0  0  0
   24.4118  -36.4203  -59.0568 O   0  0  0  0  0  0  0  0  0  0  0  0
   25.2855  -35.7251  -56.8028 O   0  0  0  0  0  0  0  0  0  0  0  0
   22.9521  -36.5605  -56.9891 O   0  0  0  0  0  0  0  0  0  0  0  0
   22.8341  -36.4515  -55.5535 C   0  0  0  0  0  0  0  0  0  0  0  0
   22.2825  -37.7539  -55.0297 C   0  0  1  0  0  0  0  0  0  0  0  0
   22.8901  -38.0312  -53.7413 O   0  0  0  0  0  0  0  0  0  0  0  0
   20.7634  -37.8082  -54.8048 C   0  0  1  0  0  0  0  0  0  0  0  0
   20.2144  -39.0201  -55.3014 O   0  0  0  0  0  0  0  0  0  0  0  0
   20.6381  -37.7563  -53.2812 C   0  0  1  0  0  0  0  0  0  0  0  0
   19.4671  -38.3745  -52.7957 O   0  0  0  0  0  0  0  0  0  0  0  0
   21.9036  -38.4877  -52.8500 C   0  0  2  0  0  0  0  0  0  0  0  0
   22.2909  -38.1489  -51.4884 N   0  0  0  0  0  0  0  0  0  0  0  0
   23.0205  -37.0547  -51.0991 C   0  0  0  0  0  0  0  0  0  0  0  0
   23.1960  -36.9812  -49.8048 N   0  0  0  0  0  0  0  0  0  0  0  0
   22.5379  -38.0941  -49.3035 C   0  0  0  0  0  0  0  0  0  0  0  0
   22.3602  -38.5782  -47.9937 C   0  0  0  0  0  0  0  0  0  0  0  0
   22.8489  -37.9803  -46.9113 N   0  0  0  0  0  0  0  0  0  0  0  0
   21.6516  -39.7209  -47.8417 N   0  0  0  0  0  0  0  0  0  0  0  0
   21.1610  -40.3169  -48.9345 C   0  0  0  0  0  0  0  0  0  0  0  0
   21.2633  -39.9534  -50.2102 N   0  0  0  0  0  0  0  0  0  0  0  0
   21.9712  -38.8202  -50.3322 C   0  0  0  0  0  0  0  0  0  0  0  0
   23.8231  -36.2606  -55.1113 H   0  0  0  0  0  0  0  0  0  0  0  0
   22.1656  -35.6195  -55.2876 H   0  0  0  0  0  0  0  0  0  0  0  0
   22.5166  -38.4848  -55.8177 H   0  0  0  0  0  0  0  0  0  0  0  0
   20.2265  -36.9987  -55.3209 H   0  0  0  0  0  0  0  0  0  0  0  0
   19.9522  -39.5990  -54.5424 H   0  0  0  0  0  0  0  0  0  0  0  0
   20.5500  -36.7339  -52.8852 H   0  0  0  0  0  0  0  0  0  0  0  0
   19.4773  -38.3692  -51.8058 H   0  0  0  0  0  0  0  0  0  0  0  0
   21.7591  -39.5780  -52.8693 H   0  0  0  0  0  0  0  0  0  0  0  0
   23.4190  -36.3119  -51.8058 H   0  0  0  0  0  0  0  0  0  0  0  0
   22.6831  -38.3865  -45.9794 H   0  0  0  0  0  0  0  0  0  0  0  0
   23.3933  -37.1109  -47.0047 H   0  0  0  0  0  0  0  0  0  0  0  0
   20.5915  -41.2401  -48.7521 H   0  0  0  0  0  0  0  0  0  0  0  0
  1  2  2  0
  1  3  1  6
  1  4  1  0
  1  8  1  0
  5  6  2  0
  5  7  1  6
  5  8  1  0
  5  9  1  0
  9 10  1  0
 11 10  1  0
 11 12  1  0
 11 13  1  0
 12 17  1  0
 13 14  1  0
 13 15  1  0
 15 16  1  0
 15 17  1  0
 17 18  1  0
 18 19  1  0
 18 27  1  0
 19 20  2  0
 20 21  1  0
 21 22  2  0
 21 27  1  0
 22 23  1  0
 22 24  1  0
 24 25  2  0
 25 26  1  0
 26 27  2  0
 10 28  1  0
 10 29  1  0
 11 30  1  6
 13 31  1  6
 14 32  1  0
 15 33  1  1
 16 34  1  0
 17 35  1  1
 19 36  1  0
 23 37  1  0
 23 38  1  0
 25 39  1  0
M  CHG  3   3  -1   4  -1   7  -1
M  END
>  <filename_input>  (9) 
8C3N_ADP_docked.sdf

>  <pdb_id>  (9) 
8C3N_ADP

>  <pose_rank>  (9) 
8

>  <num_atoms_heavy>  (9) 
27

>  <num_torsions>  (9) 
6

>  <pose>  (9) 
[22.282464301856074, -37.75388979090205, -55.029663224813014, -1.7406037855061562, -1.6999758309391313, -1.5522387259993244, -6.618843022342653, 1.4097121588286263, 0.2226783985006697, 2.1454638226016014, 0.5140975260481379, 1.4586654927023517]

>  <energy>  (9) 
-480.09988479534917

>  <inter_energy>  (9) 
-472.7923547307314

>  <intra_energy>  (9) 
3.750941939383382

>  <rmsd>  (9) 
8.27622

>  <sdf_rank>  (9) 
0

$$$$

     RDKit          3D

 39 41  0  0  0  0  0  0  0  0999 V2000
   22.2093  -41.4927  -51.7853 P   0  0  2  0  0  0  0  0  0  0  0  0
   23.1382  -40.3901  -52.2247 O   0  0  0  0  0  0  0  0  0  0  0  0
   22.9409  -42.6898  -51.2305 O   0  0  0  0  0  0  0  0  0  0  0  0
   21.1870  -41.8648  -52.8307 O   0  0  0  0  0  0  0  0  0  0  0  0
   20.7585  -39.4360  -50.3148 P   0  0  1  0  0  0  0  0  0  0  0  0
   19.4509  -39.5858  -49.6107 O   0  0  0  0  0  0  0  0  0  0  0  0
   21.8002  -38.5650  -49.6959 O   0  0  0  0  0  0  0  0  0  0  0  0
   21.3769  -40.8963  -50.5403 O   0  0  0  0  0  0  0  0  0  0  0  0
   20.4756  -38.9655  -51.8198 O   0  0  0  0  0  0  0  0  0  0  0  0
   20.6822  -37.5957  -52.2294 C   0  0  0  0  0  0  0  0  0  0  0  0
   20.5028  -37.5231  -53.7252 C   0  0  1  0  0  0  0  0  0  0  0  0
   21.2076  -36.3557  -54.2216 O   0  0  0  0  0  0  0  0  0  0  0  0
   21.0342  -38.7172  -54.5332 C   0  0  1  0  0  0  0  0  0  0  0  0
   20.1013  -39.1214  -55.5247 O   0  0  0  0  0  0  0  0  0  0  0  0
   22.2949  -38.1544  -55.1918 C   0  0  1  0  0  0  0  0  0  0  0  0
   22.6265  -38.7965  -56.4029 O   0  0  0  0  0  0  0  0  0  0  0  0
   21.9029  -36.6959  -55.3951 C   0  0  2  0  0  0  0  0  0  0  0  0
   23.0674  -35.8333  -55.5318 N   0  0  0  0  0  0  0  0  0  0  0  0
   23.2270  -34.8214  -56.4438 C   0  0  0  0  0  0  0  0  0  0  0  0
   24.3638  -34.1858  -56.3209 N   0  0  0  0  0  0  0  0  0  0  0  0
   24.9963  -34.8125  -55.2578 C   0  0  0  0  0  0  0  0  0  0  0  0
   26.2408  -34.5964  -54.6364 C   0  0  0  0  0  0  0  0  0  0  0  0
   27.1014  -33.6548  -55.0114 N   0  0  0  0  0  0  0  0  0  0  0  0
   26.5693  -35.4028  -53.6006 N   0  0  0  0  0  0  0  0  0  0  0  0
   25.6985  -36.3474  -53.2270 C   0  0  0  0  0  0  0  0  0  0  0  0
   24.5039  -36.6400  -53.7341 N   0  0  0  0  0  0  0  0  0  0  0  0
   24.2044  -35.8279  -54.7592 C   0  0  0  0  0  0  0  0  0  0  0  0
   19.9485  -36.9433  -51.7336 H   0  0  0  0  0  0  0  0  0  0  0  0
   21.6924  -37.2620  -51.9497 H   0  0  0  0  0  0  0  0  0  0  0  0
   19.4122  -37.4993  -53.8673 H   0  0  0  0  0  0  0  0  0  0  0  0
   21.2186  -39.6053  -53.9109 H   0  0  0  0  0  0  0  0  0  0  0  0
   19.2866  -39.4745  -55.0868 H   0  0  0  0  0  0  0  0  0  0  0  0
   23.2035  -38.2982  -54.5887 H   0  0  0  0  0  0  0  0  0  0  0  0
   23.0720  -39.6588  -56.2080 H   0  0  0  0  0  0  0  0  0  0  0  0
   21.3117  -36.5671  -56.3137 H   0  0  0  0  0  0  0  0  0  0  0  0
   22.4731  -34.5691  -57.2041 H   0  0  0  0  0  0  0  0  0  0  0  0
   27.9972  -33.5483  -54.5143 H   0  0  0  0  0  0  0  0  0  0  0  0
   26.8723  -33.0318  -55.7991 H   0  0  0  0  0  0  0  0  0  0  0  0
   26.0158  -36.9716  -52.3787 H   0  0  0  0  0  0  0  0  0  0  0  0
  1  2  2  0
  1  3  1  1
  1  4  1  0
  1  8  1  0
  5  6  2  0
  5  7  1  1
  5  8  1  0
  5  9  1  0
  9 10  1  0
 11 10  1  0
 11 12  1  0
 11 13  1  0
 12 17  1  0
 13 14  1  0
 13 15  1  0
 15 16  1  0
 15 17  1  0
 17 18  1  0
 18 19  1  0
 18 27  1  0
 19 20  2  0
 20 21  1  0
 21 22  2  0
 21 27  1  0
 22 23  1  0
 22 24  1  0
 24 25  2  0
 25 26  1  0
 26 27  2  0
 10 28  1  0
 10 29  1  0
 11 30  1  1
 13 31  1  1
 14 32  1  0
 15 33  1  1
 16 34  1  0
 17 35  1  6
 19 36  1  0
 23 37  1  0
 23 38  1  0
 25 39  1  0
M  CHG  3   3  -1   4  -1   7  -1
M  END
>  <filename_input>  (10) 
8C3N_ADP_docked.sdf

>  <pdb_id>  (10) 
8C3N_ADP

>  <pose_rank>  (10) 
9

>  <num_atoms_heavy>  (10) 
27

>  <num_torsions>  (10) 
6

>  <pose>  (10) 
[20.502768082710542, -37.523105461174254, -53.72524284091135, 6.223026984873852, 0.19396145503427384, -0.09197450990997748, 85.1910323424867, 410.8328883187566, 276.0850047201855, 17.849881469738115, 28.735736448473777, 4.7386898335702154]

>  <energy>  (10) 
-372.1443248713802

>  <inter_energy>  (10) 
-390.8382928732791

>  <intra_energy>  (10) 
19.129175982166768

>  <rmsd>  (10) 
3.46811

>  <sdf_rank>  (10) 
0

$$$$

     RDKit          3D

 39 41  0  0  0  0  0  0  0  0999 V2000
   23.7581  -37.3938  -59.6220 P   0  0  2  0  0  0  0  0  0  0  0  0
   23.9879  -36.4937  -60.8089 O   0  0  0  0  0  0  0  0  0  0  0  0
   24.6722  -38.5939  -59.6103 O   0  0  0  0  0  0  0  0  0  0  0  0
   22.3083  -37.7607  -59.4221 O   0  0  0  0  0  0  0  0  0  0  0  0
   25.5198  -35.7021  -58.0308 P   0  0  1  0  0  0  0  0  0  0  0  0
   26.4539  -35.8950  -59.1790 O   0  0  0  0  0  0  0  0  0  0  0  0
   25.1451  -34.3089  -57.6492 O   0  0  0  0  0  0  0  0  0  0  0  0
   24.1820  -36.5314  -58.3276 O   0  0  0  0  0  0  0  0  0  0  0  0
   26.1092  -36.4778  -56.7590 O   0  0  0  0  0  0  0  0  0  0  0  0
   25.2388  -37.1236  -55.8040 C   0  0  0  0  0  0  0  0  0  0  0  0
   25.8900  -37.0387  -54.4462 C   0  0  1  0  0  0  0  0  0  0  0  0
   24.8513  -36.9260  -53.4390 O   0  0  0  0  0  0  0  0  0  0  0  0
   26.7575  -38.2372  -54.0313 C   0  0  1  0  0  0  0  0  0  0  0  0
   27.9806  -37.8084  -53.4508 O   0  0  0  0  0  0  0  0  0  0  0  0
   25.8939  -38.9422  -52.9841 C   0  0  1  0  0  0  0  0  0  0  0  0
   26.6451  -39.6757  -52.0424 O   0  0  0  0  0  0  0  0  0  0  0  0
   25.1628  -37.7631  -52.3534 C   0  0  2  0  0  0  0  0  0  0  0  0
   23.9320  -38.1752  -51.6945 N   0  0  0  0  0  0  0  0  0  0  0  0
   22.8295  -38.7220  -52.2999 C   0  0  0  0  0  0  0  0  0  0  0  0
   21.8742  -39.0284  -51.4602 N   0  0  0  0  0  0  0  0  0  0  0  0
   22.3762  -38.6662  -50.2193 C   0  0  0  0  0  0  0  0  0  0  0  0
   21.8363  -38.7410  -48.9215 C   0  0  0  0  0  0  0  0  0  0  0  0
   20.6271  -39.2229  -48.6499 N   0  0  0  0  0  0  0  0  0  0  0  0
   22.6013  -38.2900  -47.9005 N   0  0  0  0  0  0  0  0  0  0  0  0
   23.8176  -37.8078  -48.1801 C   0  0  0  0  0  0  0  0  0  0  0  0
   24.4275  -37.6907  -49.3566 N   0  0  0  0  0  0  0  0  0  0  0  0
   23.6473  -38.1426  -50.3501 C   0  0  0  0  0  0  0  0  0  0  0  0
   24.2643  -36.6137  -55.7829 H   0  0  0  0  0  0  0  0  0  0  0  0
   25.0775  -38.1749  -56.0847 H   0  0  0  0  0  0  0  0  0  0  0  0
   26.5587  -36.1684  -54.5194 H   0  0  0  0  0  0  0  0  0  0  0  0
   27.0342  -38.8782  -54.8813 H   0  0  0  0  0  0  0  0  0  0  0  0
   27.9047  -37.8350  -52.4640 H   0  0  0  0  0  0  0  0  0  0  0  0
   25.2307  -39.7094  -53.4102 H   0  0  0  0  0  0  0  0  0  0  0  0
   26.3750  -39.4120  -51.1272 H   0  0  0  0  0  0  0  0  0  0  0  0
   25.7801  -37.2784  -51.5828 H   0  0  0  0  0  0  0  0  0  0  0  0
   22.7556  -38.8867  -53.3850 H   0  0  0  0  0  0  0  0  0  0  0  0
   20.2902  -39.2501  -47.6769 H   0  0  0  0  0  0  0  0  0  0  0  0
   20.0274  -39.5690  -49.4124 H   0  0  0  0  0  0  0  0  0  0  0  0
   24.3965  -37.4579  -47.3126 H   0  0  0  0  0  0  0  0  0  0  0  0
  1  2  2  0
  1  3  1  6
  1  4  1  0
  1  8  1  0
  5  6  2  0
  5  7  1  1
  5  8  1  0
  5  9  1  0
  9 10  1  0
 11 10  1  0
 11 12  1  0
 11 13  1  0
 12 17  1  0
 13 14  1  0
 13 15  1  0
 15 16  1  0
 15 17  1  0
 17 18  1  0
 18 19  1  0
 18 27  1  0
 19 20  2  0
 20 21  1  0
 21 22  2  0
 21 27  1  0
 22 23  1  0
 22 24  1  0
 24 25  2  0
 25 26  1  0
 26 27  2  0
 10 28  1  0
 10 29  1  0
 11 30  1  6
 13 31  1  6
 14 32  1  0
 15 33  1  6
 16 34  1  0
 17 35  1  1
 19 36  1  0
 23 37  1  0
 23 38  1  0
 25 39  1  0
M  CHG  3   3  -1   4  -1   7  -1
M  END
>  <filename_input>  (11) 
8C3N_ADP_docked.sdf

>  <pdb_id>  (11) 
8C3N_ADP

>  <pose_rank>  (11) 
10

>  <num_atoms_heavy>  (11) 
27

>  <num_torsions>  (11) 
6

>  <pose>  (11) 
[25.889968472500385, -37.038723176332425, -54.44616571512788, 1.193795073857541, -2.475456017215197, -0.4120759601454503, 0.007021532777588965, 1.4526036937783242, 0.31866009647197474, 0.9485119866464884, 1.0571378259610404, -3.12339585631543]

>  <energy>  (11) 
-309.26831775281045

>  <inter_energy>  (11) 
-316.3327074005396

>  <intra_energy>  (11) 
4.991235705271417

>  <rmsd>  (11) 
8.88947

>  <sdf_rank>  (11) 
0

$$$$

     RDKit          3D

 39 41  0  0  0  0  0  0  0  0999 V2000
   22.9088  -38.7053  -48.0517 P   0  0  2  0  0  0  0  0  0  0  0  0
   24.0119  -39.4816  -48.7242 O   0  0  0  0  0  0  0  0  0  0  0  0
   23.3722  -37.3742  -47.5136 O   0  0  0  0  0  0  0  0  0  0  0  0
   22.1444  -39.5140  -47.0329 O   0  0  0  0  0  0  0  0  0  0  0  0
   20.6019  -37.3436  -49.2011 P   0  0  1  0  0  0  0  0  0  0  0  0
   19.7947  -37.6232  -47.9771 O   0  0  0  0  0  0  0  0  0  0  0  0
   21.0962  -35.9528  -49.4209 O   0  0  0  0  0  0  0  0  0  0  0  0
   21.8539  -38.3425  -49.2154 O   0  0  0  0  0  0  0  0  0  0  0  0
   19.7748  -37.8387  -50.4807 O   0  0  0  0  0  0  0  0  0  0  0  0
   19.9720  -39.1567  -51.0381 C   0  0  0  0  0  0  0  0  0  0  0  0
   20.2152  -39.0063  -52.5190 C   0  0  1  0  0  0  0  0  0  0  0  0
   21.0863  -37.8655  -52.7333 O   0  0  0  0  0  0  0  0  0  0  0  0
   20.8888  -40.1948  -53.2223 C   0  0  1  0  0  0  0  0  0  0  0  0
   20.2462  -40.4940  -54.4528 O   0  0  0  0  0  0  0  0  0  0  0  0
   22.3083  -39.6853  -53.4774 C   0  0  1  0  0  0  0  0  0  0  0  0
   22.9285  -40.2929  -54.5889 O   0  0  0  0  0  0  0  0  0  0  0  0
   22.0601  -38.1971  -53.6913 C   0  0  2  0  0  0  0  0  0  0  0  0
   23.2584  -37.4057  -53.4535 N   0  0  0  0  0  0  0  0  0  0  0  0
   23.9796  -37.3524  -52.2881 C   0  0  0  0  0  0  0  0  0  0  0  0
   25.0334  -36.5811  -52.3642 N   0  0  0  0  0  0  0  0  0  0  0  0
   25.0126  -36.0954  -53.6629 C   0  0  0  0  0  0  0  0  0  0  0  0
   25.8692  -35.2233  -54.3610 C   0  0  0  0  0  0  0  0  0  0  0  0
   26.9520  -34.6656  -53.8275 N   0  0  0  0  0  0  0  0  0  0  0  0
   25.5595  -34.9422  -55.6478 N   0  0  0  0  0  0  0  0  0  0  0  0
   24.4696  -35.5078  -56.1794 C   0  0  0  0  0  0  0  0  0  0  0  0
   23.5953  -36.3408  -55.6211 N   0  0  0  0  0  0  0  0  0  0  0  0
   23.9246  -36.6007  -54.3468 C   0  0  0  0  0  0  0  0  0  0  0  0
   20.8413  -39.6360  -50.5641 H   0  0  0  0  0  0  0  0  0  0  0  0
   19.0860  -39.7834  -50.8586 H   0  0  0  0  0  0  0  0  0  0  0  0
   19.2085  -38.9063  -52.9509 H   0  0  0  0  0  0  0  0  0  0  0  0
   20.8506  -41.1197  -52.6280 H   0  0  0  0  0  0  0  0  0  0  0  0
   19.3636  -40.9048  -54.2728 H   0  0  0  0  0  0  0  0  0  0  0  0
   23.0075  -39.9138  -52.6596 H   0  0  0  0  0  0  0  0  0  0  0  0
   23.5990  -40.9498  -54.2745 H   0  0  0  0  0  0  0  0  0  0  0  0
   21.7519  -37.9899  -54.7267 H   0  0  0  0  0  0  0  0  0  0  0  0
   23.6993  -37.9042  -51.3787 H   0  0  0  0  0  0  0  0  0  0  0  0
   27.5382  -34.0351  -54.3929 H   0  0  0  0  0  0  0  0  0  0  0  0
   27.2045  -34.8642  -52.8489 H   0  0  0  0  0  0  0  0  0  0  0  0
   24.2674  -35.2464  -57.2286 H   0  0  0  0  0  0  0  0  0  0  0  0
  1  2  2  0
  1  3  1  1
  1  4  1  0
  1  8  1  0
  5  6  2  0
  5  7  1  6
  5  8  1  0
  5  9  1  0
  9 10  1  0
 11 10  1  0
 11 12  1  0
 11 13  1  0
 12 17  1  0
 13 14  1  0
 13 15  1  0
 15 16  1  0
 15 17  1  0
 17 18  1  0
 18 19  1  0
 18 27  1  0
 19 20  2  0
 20 21  1  0
 21 22  2  0
 21 27  1  0
 22 23  1  0
 22 24  1  0
 24 25  2  0
 25 26  1  0
 26 27  2  0
 10 28  1  0
 10 29  1  0
 11 30  1  6
 13 31  1  1
 14 32  1  0
 15 33  1  1
 16 34  1  0
 17 35  1  6
 19 36  1  0
 23 37  1  0
 23 38  1  0
 25 39  1  0
M  CHG  3   3  -1   4  -1   7  -1
M  END
>  <filename_input>  (12) 
8C3N_ADP_docked.sdf

>  <pdb_id>  (12) 
8C3N_ADP

>  <pose_rank>  (12) 
11

>  <num_atoms_heavy>  (12) 
27

>  <num_torsions>  (12) 
6

>  <pose>  (12) 
[20.215182207542597, -39.00628873724194, -52.51898797818701, 0.06451746828391769, 5.841706054960231, 1.3591419157522933, 0.10094203288944371, -0.39505764759671164, -5.638171559597866, -4.443606809411423, 0.26826457015083244, 1.094035409639913]

>  <energy>  (12) 
-461.87966185928013

>  <inter_energy>  (12) 
-465.65882732066837

>  <intra_energy>  (12) 
3.233036339758671

>  <rmsd>  (12) 
2.54427

>  <sdf_rank>  (12) 
0

$$$$

     RDKit          3D

 39 41  0  0  0  0  0  0  0  0999 V2000
   19.3246  -38.2415  -47.6366 P   0  0  2  0  0  0  0  0  0  0  0  0
   20.2698  -39.3486  -47.2461 O   0  0  0  0  0  0  0  0  0  0  0  0
   19.5959  -36.9522  -46.9017 O   0  0  0  0  0  0  0  0  0  0  0  0
   17.8729  -38.6495  -47.5859 O   0  0  0  0  0  0  0  0  0  0  0  0
   20.7676  -38.5142  -50.1547 P   0  0  1  0  0  0  0  0  0  0  0  0
   21.0382  -39.9239  -49.7456 O   0  0  0  0  0  0  0  0  0  0  0  0
   20.3685  -38.2513  -51.5684 O   0  0  0  0  0  0  0  0  0  0  0  0
   19.6427  -37.9171  -49.1834 O   0  0  0  0  0  0  0  0  0  0  0  0
   22.0394  -37.6192  -49.7700 O   0  0  0  0  0  0  0  0  0  0  0  0
   23.2481  -37.6533  -50.5603 C   0  0  0  0  0  0  0  0  0  0  0  0
   24.1346  -38.7432  -50.0117 C   0  0  1  0  0  0  0  0  0  0  0  0
   23.4435  -40.0129  -50.1399 O   0  0  0  0  0  0  0  0  0  0  0  0
   25.4947  -38.9267  -50.7028 C   0  0  1  0  0  0  0  0  0  0  0  0
   26.5361  -39.0878  -49.7509 O   0  0  0  0  0  0  0  0  0  0  0  0
   25.3044  -40.2172  -51.5016 C   0  0  1  0  0  0  0  0  0  0  0  0
   26.5080  -40.9168  -51.7276 O   0  0  0  0  0  0  0  0  0  0  0  0
   24.3435  -40.9878  -50.6043 C   0  0  2  0  0  0  0  0  0  0  0  0
   23.6109  -42.0077  -51.3403 N   0  0  0  0  0  0  0  0  0  0  0  0
   23.7518  -43.3655  -51.2071 C   0  0  0  0  0  0  0  0  0  0  0  0
   22.9414  -44.0495  -51.9731 N   0  0  0  0  0  0  0  0  0  0  0  0
   22.2141  -43.0851  -52.6541 C   0  0  0  0  0  0  0  0  0  0  0  0
   21.1916  -43.1757  -53.6174 C   0  0  0  0  0  0  0  0  0  0  0  0
   20.7086  -44.3259  -54.0777 N   0  0  0  0  0  0  0  0  0  0  0  0
   20.6816  -42.0176  -54.0967 N   0  0  0  0  0  0  0  0  0  0  0  0
   21.1706  -40.8636  -53.6284 C   0  0  0  0  0  0  0  0  0  0  0  0
   22.1258  -40.6580  -52.7256 N   0  0  0  0  0  0  0  0  0  0  0  0
   22.6147  -41.8210  -52.2690 C   0  0  0  0  0  0  0  0  0  0  0  0
   23.0011  -37.8667  -51.6107 H   0  0  0  0  0  0  0  0  0  0  0  0
   23.7629  -36.6824  -50.5123 H   0  0  0  0  0  0  0  0  0  0  0  0
   24.3399  -38.4316  -48.9769 H   0  0  0  0  0  0  0  0  0  0  0  0
   25.7797  -38.0620  -51.3201 H   0  0  0  0  0  0  0  0  0  0  0  0
   26.1598  -39.0296  -48.8370 H   0  0  0  0  0  0  0  0  0  0  0  0
   24.9316  -40.0476  -52.5225 H   0  0  0  0  0  0  0  0  0  0  0  0
   26.9190  -41.1557  -50.8592 H   0  0  0  0  0  0  0  0  0  0  0  0
   24.8826  -41.5118  -49.8012 H   0  0  0  0  0  0  0  0  0  0  0  0
   24.4753  -43.8334  -50.5232 H   0  0  0  0  0  0  0  0  0  0  0  0
   19.9587  -44.3238  -54.7838 H   0  0  0  0  0  0  0  0  0  0  0  0
   21.0843  -45.2189  -53.7281 H   0  0  0  0  0  0  0  0  0  0  0  0
   20.7179  -39.9543  -54.0506 H   0  0  0  0  0  0  0  0  0  0  0  0
  1  2  2  0
  1  3  1  1
  1  4  1  0
  1  8  1  0
  5  6  2  0
  5  7  1  6
  5  8  1  0
  5  9  1  0
  9 10  1  0
 11 10  1  0
 11 12  1  0
 11 13  1  0
 12 17  1  0
 13 14  1  0
 13 15  1  0
 15 16  1  0
 15 17  1  0
 17 18  1  0
 18 19  1  0
 18 27  1  0
 19 20  2  0
 20 21  1  0
 21 22  2  0
 21 27  1  0
 22 23  1  0
 22 24  1  0
 24 25  2  0
 25 26  1  0
 26 27  2  0
 10 28  1  0
 10 29  1  0
 11 30  1  1
 13 31  1  6
 14 32  1  0
 15 33  1  6
 16 34  1  0
 17 35  1  1
 19 36  1  0
 23 37  1  0
 23 38  1  0
 25 39  1  0
M  CHG  3   3  -1   4  -1   7  -1
M  END
>  <filename_input>  (13) 
8C3N_ADP_docked.sdf

>  <pdb_id>  (13) 
8C3N_ADP

>  <pose_rank>  (13) 
12

>  <num_atoms_heavy>  (13) 
27

>  <num_torsions>  (13) 
6

>  <pose>  (13) 
[24.134641714118246, -38.74324080649327, -50.01165236977881, 2.2347985913072645, -1.525800921156853, -2.105629066857224, 3.0670361112024844, -0.039756763972266886, -4.947440539902071, -1.4709965372667886, 1.659081897756949, 3.9737063901038034]

>  <energy>  (13) 
-314.78051130016956

>  <inter_energy>  (13) 
-389.27528267415374

>  <intra_energy>  (13) 
80.34662534602309

>  <rmsd>  (13) 
6.29788

>  <sdf_rank>  (13) 
0

$$$$

     RDKit          3D

 39 41  0  0  0  0  0  0  0  0999 V2000
   20.5905  -38.7193  -51.3322 P   0  0  2  0  0  0  0  0  0  0  0  0
   19.5648  -38.3908  -50.2778 O   0  0  0  0  0  0  0  0  0  0  0  0
   20.6511  -37.6890  -52.4326 O   0  0  0  0  0  0  0  0  0  0  0  0
   20.4777  -40.1294  -51.8567 O   0  0  0  0  0  0  0  0  0  0  0  0
   22.4014  -38.8043  -49.0495 P   0  0  1  0  0  0  0  0  0  0  0  0
   22.0861  -37.5270  -48.3445 O   0  0  0  0  0  0  0  0  0  0  0  0
   21.7825  -40.0642  -48.5429 O   0  0  0  0  0  0  0  0  0  0  0  0
   22.0218  -38.6307  -50.5959 O   0  0  0  0  0  0  0  0  0  0  0  0
   23.9935  -38.9672  -49.1207 O   0  0  0  0  0  0  0  0  0  0  0  0
   24.6397  -39.5259  -50.2855 C   0  0  0  0  0  0  0  0  0  0  0  0
   25.9080  -38.7486  -50.5344 C   0  0  1  0  0  0  0  0  0  0  0  0
   26.1781  -38.7442  -51.9603 O   0  0  0  0  0  0  0  0  0  0  0  0
   25.9002  -37.2754  -50.0978 C   0  0  1  0  0  0  0  0  0  0  0  0
   27.1018  -36.9343  -49.4221 O   0  0  0  0  0  0  0  0  0  0  0  0
   25.8085  -36.5223  -51.4260 C   0  0  1  0  0  0  0  0  0  0  0  0
   26.3710  -35.2300  -51.3754 O   0  0  0  0  0  0  0  0  0  0  0  0
   26.5766  -37.4551  -52.3546 C   0  0  2  0  0  0  0  0  0  0  0  0
   26.2212  -37.2472  -53.7507 N   0  0  0  0  0  0  0  0  0  0  0  0
   25.1212  -37.7546  -54.3938 C   0  0  0  0  0  0  0  0  0  0  0  0
   25.0322  -37.3807  -55.6443 N   0  0  0  0  0  0  0  0  0  0  0  0
   26.1405  -36.5710  -55.8421 C   0  0  0  0  0  0  0  0  0  0  0  0
   26.6096  -35.8672  -56.9674 C   0  0  0  0  0  0  0  0  0  0  0  0
   25.9982  -35.8677  -58.1481 N   0  0  0  0  0  0  0  0  0  0  0  0
   27.7518  -35.1555  -56.8265 N   0  0  0  0  0  0  0  0  0  0  0  0
   28.3615  -35.1577  -55.6355 C   0  0  0  0  0  0  0  0  0  0  0  0
   28.0127  -35.7783  -54.5116 N   0  0  0  0  0  0  0  0  0  0  0  0
   26.8796  -36.4769  -54.6796 C   0  0  0  0  0  0  0  0  0  0  0  0
   24.8798  -40.5845  -50.1072 H   0  0  0  0  0  0  0  0  0  0  0  0
   23.9744  -39.4605  -51.1591 H   0  0  0  0  0  0  0  0  0  0  0  0
   26.6652  -39.2607  -49.9225 H   0  0  0  0  0  0  0  0  0  0  0  0
   25.0832  -37.0418  -49.3991 H   0  0  0  0  0  0  0  0  0  0  0  0
   26.9538  -36.9763  -48.4441 H   0  0  0  0  0  0  0  0  0  0  0  0
   24.7746  -36.3204  -51.7426 H   0  0  0  0  0  0  0  0  0  0  0  0
   26.4893  -34.9584  -50.4308 H   0  0  0  0  0  0  0  0  0  0  0  0
   27.6609  -37.2847  -52.2817 H   0  0  0  0  0  0  0  0  0  0  0  0
   24.3859  -38.4114  -53.9060 H   0  0  0  0  0  0  0  0  0  0  0  0
   26.3938  -35.3310  -58.9332 H   0  0  0  0  0  0  0  0  0  0  0  0
   25.1289  -36.4048  -58.2777 H   0  0  0  0  0  0  0  0  0  0  0  0
   29.2836  -34.5608  -55.5773 H   0  0  0  0  0  0  0  0  0  0  0  0
  1  2  2  0
  1  3  1  6
  1  4  1  0
  1  8  1  0
  5  6  2  0
  5  7  1  1
  5  8  1  0
  5  9  1  0
  9 10  1  0
 11 10  1  0
 11 12  1  0
 11 13  1  0
 12 17  1  0
 13 14  1  0
 13 15  1  0
 15 16  1  0
 15 17  1  0
 17 18  1  0
 18 19  1  0
 18 27  1  0
 19 20  2  0
 20 21  1  0
 21 22  2  0
 21 27  1  0
 22 23  1  0
 22 24  1  0
 24 25  2  0
 25 26  1  0
 26 27  2  0
 10 28  1  0
 10 29  1  0
 11 30  1  1
 13 31  1  1
 14 32  1  0
 15 33  1  6
 16 34  1  0
 17 35  1  6
 19 36  1  0
 23 37  1  0
 23 38  1  0
 25 39  1  0
M  CHG  3   3  -1   4  -1   7  -1
M  END
>  <filename_input>  (14) 
8C3N_ADP_docked.sdf

>  <pdb_id>  (14) 
8C3N_ADP

>  <pose_rank>  (14) 
13

>  <num_atoms_heavy>  (14) 
27

>  <num_torsions>  (14) 
6

>  <pose>  (14) 
[25.908041710057194, -38.74858815759497, -50.534417853860695, -1.338127771116271, -1.410875054631611, 2.270710891514406, -0.29335635001912447, 2.5613522527453148, -0.9322236444809614, 0.9931458157393027, -0.28322568082797156, -1.8059392176534037]

>  <energy>  (14) 
-252.0755268951629

>  <inter_energy>  (14) 
-253.93883509327975

>  <intra_energy>  (14) 
0.8919301663333377

>  <rmsd>  (14) 
4.76481

>  <sdf_rank>  (14) 
0

$$$$

     RDKit          3D

 39 41  0  0  0  0  0  0  0  0999 V2000
   25.1553  -36.2525  -59.7321 P   0  0  2  0  0  0  0  0  0  0  0  0
   25.6052  -37.5821  -60.2812 O   0  0  0  0  0  0  0  0  0  0  0  0
   24.0665  -36.3839  -58.6961 O   0  0  0  0  0  0  0  0  0  0  0  0
   24.8238  -35.2444  -60.8045 O   0  0  0  0  0  0  0  0  0  0  0  0
   26.5121  -34.4322  -57.9037 P   0  0  1  0  0  0  0  0  0  0  0  0
   27.8962  -33.8759  -57.9574 O   0  0  0  0  0  0  0  0  0  0  0  0
   25.3674  -33.5085  -58.1551 O   0  0  0  0  0  0  0  0  0  0  0  0
   26.4225  -35.6546  -58.9348 O   0  0  0  0  0  0  0  0  0  0  0  0
   26.3164  -35.1758  -56.4983 O   0  0  0  0  0  0  0  0  0  0  0  0
   26.1748  -34.4315  -55.2684 C   0  0  0  0  0  0  0  0  0  0  0  0
   26.4202  -35.3768  -54.1190 C   0  0  1  0  0  0  0  0  0  0  0  0
   25.2474  -35.3835  -53.2644 O   0  0  0  0  0  0  0  0  0  0  0  0
   26.6858  -36.8442  -54.4895 C   0  0  1  0  0  0  0  0  0  0  0  0
   27.7743  -37.3720  -53.7456 O   0  0  0  0  0  0  0  0  0  0  0  0
   25.3847  -37.5419  -54.0897 C   0  0  1  0  0  0  0  0  0  0  0  0
   25.5583  -38.9026  -53.7621 O   0  0  0  0  0  0  0  0  0  0  0  0
   24.9506  -36.7060  -52.8917 C   0  0  2  0  0  0  0  0  0  0  0  0
   23.5230  -36.8247  -52.6338 N   0  0  0  0  0  0  0  0  0  0  0  0
   22.5282  -36.8780  -53.5764 C   0  0  0  0  0  0  0  0  0  0  0  0
   21.3330  -37.0177  -53.0630 N   0  0  0  0  0  0  0  0  0  0  0  0
   21.5488  -37.0644  -51.6940 C   0  0  0  0  0  0  0  0  0  0  0  0
   20.6715  -37.2021  -50.6018 C   0  0  0  0  0  0  0  0  0  0  0  0
   19.3528  -37.3219  -50.7227 N   0  0  0  0  0  0  0  0  0  0  0  0
   21.2144  -37.2084  -49.3624 N   0  0  0  0  0  0  0  0  0  0  0  0
   22.5421  -37.0891  -49.2475 C   0  0  0  0  0  0  0  0  0  0  0  0
   23.4616  -36.9561  -50.1996 N   0  0  0  0  0  0  0  0  0  0  0  0
   22.8968  -36.9510  -51.4166 C   0  0  0  0  0  0  0  0  0  0  0  0
   26.9089  -33.6127  -55.2413 H   0  0  0  0  0  0  0  0  0  0  0  0
   25.1658  -33.9991  -55.1981 H   0  0  0  0  0  0  0  0  0  0  0  0
   27.3358  -34.9949  -53.6438 H   0  0  0  0  0  0  0  0  0  0  0  0
   26.9512  -36.9755  -55.5489 H   0  0  0  0  0  0  0  0  0  0  0  0
   27.5874  -37.2813  -52.7777 H   0  0  0  0  0  0  0  0  0  0  0  0
   24.6449  -37.5846  -54.9027 H   0  0  0  0  0  0  0  0  0  0  0  0
   25.5715  -39.0059  -52.7776 H   0  0  0  0  0  0  0  0  0  0  0  0
   25.4601  -37.0327  -51.9732 H   0  0  0  0  0  0  0  0  0  0  0  0
   22.7167  -36.8099  -54.6580 H   0  0  0  0  0  0  0  0  0  0  0  0
   18.7653  -37.4196  -49.8823 H   0  0  0  0  0  0  0  0  0  0  0  0
   18.9187  -37.3170  -51.6568 H   0  0  0  0  0  0  0  0  0  0  0  0
   22.9289  -37.1031  -48.2178 H   0  0  0  0  0  0  0  0  0  0  0  0
  1  2  2  0
  1  3  1  1
  1  4  1  0
  1  8  1  0
  5  6  2  0
  5  7  1  6
  5  8  1  0
  5  9  1  0
  9 10  1  0
 11 10  1  0
 11 12  1  0
 11 13  1  0
 12 17  1  0
 13 14  1  0
 13 15  1  0
 15 16  1  0
 15 17  1  0
 17 18  1  0
 18 19  1  0
 18 27  1  0
 19 20  2  0
 20 21  1  0
 21 22  2  0
 21 27  1  0
 22 23  1  0
 22 24  1  0
 24 25  2  0
 25 26  1  0
 26 27  2  0
 10 28  1  0
 10 29  1  0
 11 30  1  1
 13 31  1  6
 14 32  1  0
 15 33  1  6
 16 34  1  0
 17 35  1  1
 19 36  1  0
 23 37  1  0
 23 38  1  0
 25 39  1  0
M  CHG  3   3  -1   4  -1   7  -1
M  END
>  <filename_input>  (15) 
8C3N_ADP_docked.sdf

>  <pdb_id>  (15) 
8C3N_ADP

>  <pose_rank>  (15) 
14

>  <num_atoms_heavy>  (15) 
27

>  <num_torsions>  (15) 
6

>  <pose>  (15) 
[26.420238939682374, -35.37675957559937, -54.11902569922477, -0.8340746136910396, 2.626179431735115, 1.2323345187409096, 0.4358057239383279, -3.246086263853168, -6.242080678539448, -1.5304557757465835, -1.561160079935805, 1.1338752415533142]

>  <energy>  (15) 
-387.65731091584337

>  <inter_energy>  (15) 
-386.875336765772

>  <intra_energy>  (15) 
2.5303855532295763

>  <rmsd>  (15) 
8.84503

>  <sdf_rank>  (15) 
0

$$$$

     RDKit          3D

 39 41  0  0  0  0  0  0  0  0999 V2000
   26.5625  -37.7513  -57.1906 P   0  0  2  0  0  0  0  0  0  0  0  0
   26.9614  -37.4327  -55.7724 O   0  0  0  0  0  0  0  0  0  0  0  0
   26.3956  -39.2307  -57.4346 O   0  0  0  0  0  0  0  0  0  0  0  0
   27.4380  -37.0834  -58.2219 O   0  0  0  0  0  0  0  0  0  0  0  0
   24.5321  -35.6656  -57.0338 P   0  0  1  0  0  0  0  0  0  0  0  0
   25.6055  -34.9148  -56.3182 O   0  0  0  0  0  0  0  0  0  0  0  0
   23.9517  -35.0650  -58.2705 O   0  0  0  0  0  0  0  0  0  0  0  0
   25.0894  -37.1259  -57.3840 O   0  0  0  0  0  0  0  0  0  0  0  0
   23.3646  -36.0036  -55.9901 O   0  0  0  0  0  0  0  0  0  0  0  0
   23.5616  -36.9627  -54.9280 C   0  0  0  0  0  0  0  0  0  0  0  0
   22.4245  -37.9525  -54.9751 C   0  0  1  0  0  0  0  0  0  0  0  0
   22.6115  -38.9258  -53.9151 O   0  0  0  0  0  0  0  0  0  0  0  0
   21.0130  -37.3772  -54.7811 C   0  0  1  0  0  0  0  0  0  0  0  0
   20.1023  -37.9239  -55.7238 O   0  0  0  0  0  0  0  0  0  0  0  0
   20.6465  -37.8315  -53.3673 C   0  0  1  0  0  0  0  0  0  0  0  0
   19.2572  -37.9680  -53.1669 O   0  0  0  0  0  0  0  0  0  0  0  0
   21.3805  -39.1642  -53.2796 C   0  0  2  0  0  0  0  0  0  0  0  0
   21.6200  -39.5639  -51.9006 N   0  0  0  0  0  0  0  0  0  0  0  0
   21.2231  -40.7384  -51.3140 C   0  0  0  0  0  0  0  0  0  0  0  0
   21.6016  -40.8499  -50.0667 N   0  0  0  0  0  0  0  0  0  0  0  0
   22.2970  -39.6777  -49.8110 C   0  0  0  0  0  0  0  0  0  0  0  0
   22.9487  -39.1958  -48.6600 C   0  0  0  0  0  0  0  0  0  0  0  0
   23.0067  -39.8603  -47.5098 N   0  0  0  0  0  0  0  0  0  0  0  0
   23.5438  -37.9833  -48.7416 N   0  0  0  0  0  0  0  0  0  0  0  0
   23.4833  -37.3203  -49.9022 C   0  0  0  0  0  0  0  0  0  0  0  0
   22.9025  -37.6745  -51.0455 N   0  0  0  0  0  0  0  0  0  0  0  0
   22.3194  -38.8778  -50.9364 C   0  0  0  0  0  0  0  0  0  0  0  0
   24.5183  -37.4864  -55.0709 H   0  0  0  0  0  0  0  0  0  0  0  0
   23.5840  -36.4533  -53.9532 H   0  0  0  0  0  0  0  0  0  0  0  0
   22.4657  -38.3654  -55.9939 H   0  0  0  0  0  0  0  0  0  0  0  0
   20.9739  -36.2866  -54.9197 H   0  0  0  0  0  0  0  0  0  0  0  0
   19.3595  -38.3698  -55.2447 H   0  0  0  0  0  0  0  0  0  0  0  0
   20.9300  -37.1076  -52.5891 H   0  0  0  0  0  0  0  0  0  0  0  0
   19.0641  -37.9870  -52.1961 H   0  0  0  0  0  0  0  0  0  0  0  0
   20.7934  -39.9727  -53.7396 H   0  0  0  0  0  0  0  0  0  0  0  0
   20.6434  -41.5108  -51.8406 H   0  0  0  0  0  0  0  0  0  0  0  0
   23.5001  -39.4517  -46.7032 H   0  0  0  0  0  0  0  0  0  0  0  0
   22.5583  -40.7837  -47.4253 H   0  0  0  0  0  0  0  0  0  0  0  0
   23.9859  -36.3419  -49.9125 H   0  0  0  0  0  0  0  0  0  0  0  0
  1  2  2  0
  1  3  1  1
  1  4  1  0
  1  8  1  0
  5  6  2  0
  5  7  1  6
  5  8  1  0
  5  9  1  0
  9 10  1  0
 11 10  1  0
 11 12  1  0
 11 13  1  0
 12 17  1  0
 13 14  1  0
 13 15  1  0
 15 16  1  0
 15 17  1  0
 17 18  1  0
 18 19  1  0
 18 27  1  0
 19 20  2  0
 20 21  1  0
 21 22  2  0
 21 27  1  0
 22 23  1  0
 22 24  1  0
 24 25  2  0
 25 26  1  0
 26 27  2  0
 10 28  1  0
 10 29  1  0
 11 30  1  6
 13 31  1  1
 14 32  1  0
 15 33  1  1
 16 34  1  0
 17 35  1  6
 19 36  1  0
 23 37  1  0
 23 38  1  0
 25 39  1  0
M  CHG  3   3  -1   4  -1   7  -1
M  END
>  <filename_input>  (16) 
8C3N_ADP_docked.sdf

>  <pdb_id>  (16) 
8C3N_ADP

>  <pose_rank>  (16) 
15

>  <num_atoms_heavy>  (16) 
27

>  <num_torsions>  (16) 
6

>  <pose>  (16) 
[22.42451967905834, -37.952450156702966, -54.975126764892885, -1.9434643863455596, -0.9310539066608253, -2.0279242825348796, -3.002949533428853, 8.307085112085552, 6.932487415013238, 2.2617415523395463, 1.0101659881438259, -1.3858269447317295]

>  <energy>  (16) 
-358.5182454260936

>  <inter_energy>  (16) 
-374.4366251933154

>  <intra_energy>  (16) 
18.176191344852764

>  <rmsd>  (16) 
8.0623

>  <sdf_rank>  (16) 
0

$$$$

     RDKit          3D

 39 41  0  0  0  0  0  0  0  0999 V2000
   24.7460  -36.3430  -56.5502 P   0  0  2  0  0  0  0  0  0  0  0  0
   24.9959  -37.7661  -56.9792 O   0  0  0  0  0  0  0  0  0  0  0  0
   23.4266  -35.8043  -57.0451 O   0  0  0  0  0  0  0  0  0  0  0  0
   25.9021  -35.4189  -56.8430 O   0  0  0  0  0  0  0  0  0  0  0  0
   23.8009  -37.4028  -54.0044 P   0  0  1  0  0  0  0  0  0  0  0  0
   22.3460  -37.0866  -54.1109 O   0  0  0  0  0  0  0  0  0  0  0  0
   24.2475  -38.7935  -54.3102 O   0  0  0  0  0  0  0  0  0  0  0  0
   24.6054  -36.3860  -54.9448 O   0  0  0  0  0  0  0  0  0  0  0  0
   24.3103  -36.9727  -52.5477 O   0  0  0  0  0  0  0  0  0  0  0  0
   23.6107  -37.3891  -51.3545 C   0  0  0  0  0  0  0  0  0  0  0  0
   24.5756  -38.1660  -50.4941 C   0  0  1  0  0  0  0  0  0  0  0  0
   24.1205  -38.1085  -49.1173 O   0  0  0  0  0  0  0  0  0  0  0  0
   24.7363  -39.6573  -50.8278 C   0  0  1  0  0  0  0  0  0  0  0  0
   26.1040  -40.0395  -50.8227 O   0  0  0  0  0  0  0  0  0  0  0  0
   23.9899  -40.3488  -49.6857 C   0  0  1  0  0  0  0  0  0  0  0  0
   24.4675  -41.6472  -49.4115 O   0  0  0  0  0  0  0  0  0  0  0  0
   24.2393  -39.3821  -48.5342 C   0  0  2  0  0  0  0  0  0  0  0  0
   23.2457  -39.5235  -47.4799 N   0  0  0  0  0  0  0  0  0  0  0  0
   23.4583  -40.0367  -46.2259 C   0  0  0  0  0  0  0  0  0  0  0  0
   22.3920  -40.0157  -45.4684 N   0  0  0  0  0  0  0  0  0  0  0  0
   21.4114  -39.4489  -46.2685 C   0  0  0  0  0  0  0  0  0  0  0  0
   20.0546  -39.1542  -46.0370 C   0  0  0  0  0  0  0  0  0  0  0  0
   19.4295  -39.3998  -44.8894 N   0  0  0  0  0  0  0  0  0  0  0  0
   19.3566  -38.5915  -47.0505 N   0  0  0  0  0  0  0  0  0  0  0  0
   19.9916  -38.3454  -48.2022 C   0  0  0  0  0  0  0  0  0  0  0  0
   21.2595  -38.5775  -48.5315 N   0  0  0  0  0  0  0  0  0  0  0  0
   21.9270  -39.1366  -47.5108 C   0  0  0  0  0  0  0  0  0  0  0  0
   23.2497  -36.5064  -50.8064 H   0  0  0  0  0  0  0  0  0  0  0  0
   22.7455  -38.0151  -51.6183 H   0  0  0  0  0  0  0  0  0  0  0  0
   25.5494  -37.6890  -50.6790 H   0  0  0  0  0  0  0  0  0  0  0  0
   24.3537  -39.9147  -51.8265 H   0  0  0  0  0  0  0  0  0  0  0  0
   26.4186  -40.1275  -49.8881 H   0  0  0  0  0  0  0  0  0  0  0  0
   22.9266  -40.5267  -49.9039 H   0  0  0  0  0  0  0  0  0  0  0  0
   24.5166  -41.7807  -48.4318 H   0  0  0  0  0  0  0  0  0  0  0  0
   25.2174  -39.5656  -48.0655 H   0  0  0  0  0  0  0  0  0  0  0  0
   24.4301  -40.4277  -45.8901 H   0  0  0  0  0  0  0  0  0  0  0  0
   18.4334  -39.1598  -44.7838 H   0  0  0  0  0  0  0  0  0  0  0  0
   19.9414  -39.8299  -44.1059 H   0  0  0  0  0  0  0  0  0  0  0  0
   19.3770  -37.8852  -48.9899 H   0  0  0  0  0  0  0  0  0  0  0  0
  1  2  2  0
  1  3  1  6
  1  4  1  0
  1  8  1  0
  5  6  2  0
  5  7  1  6
  5  8  1  0
  5  9  1  0
  9 10  1  0
 11 10  1  0
 11 12  1  0
 11 13  1  0
 12 17  1  0
 13 14  1  0
 13 15  1  0
 15 16  1  0
 15 17  1  0
 17 18  1  0
 18 19  1  0
 18 27  1  0
 19 20  2  0
 20 21  1  0
 21 22  2  0
 21 27  1  0
 22 23  1  0
 22 24  1  0
 24 25  2  0
 25 26  1  0
 26 27  2  0
 10 28  1  0
 10 29  1  0
 11 30  1  1
 13 31  1  6
 14 32  1  0
 15 33  1  6
 16 34  1  0
 17 35  1  1
 19 36  1  0
 23 37  1  0
 23 38  1  0
 25 39  1  0
M  CHG  3   3  -1   4  -1   7  -1
M  END
>  <filename_input>  (17) 
8C3N_ADP_docked.sdf

>  <pdb_id>  (17) 
8C3N_ADP

>  <pose_rank>  (17) 
16

>  <num_atoms_heavy>  (17) 
27

>  <num_torsions>  (17) 
6

>  <pose>  (17) 
[24.575631153624037, -38.16604120354669, -50.494109858001245, 0.4779781078437512, -2.342186566794854, -1.1643898071941068, -9.519579467027413, -4.669351816215497, -1.271735912684683, -1.9278004960692379, -0.18874792834469412, 3.267714585618426]

>  <energy>  (17) 
-348.5951937022465

>  <inter_energy>  (17) 
-365.40121636606534

>  <intra_energy>  (17) 
16.56817369759832

>  <rmsd>  (17) 
9.11144

>  <sdf_rank>  (17) 
0

$$$$

     RDKit          3D

 39 41  0  0  0  0  0  0  0  0999 V2000
   28.0234  -36.7308  -56.6745 P   0  0  2  0  0  0  0  0  0  0  0  0
   28.7783  -35.4285  -56.7503 O   0  0  0  0  0  0  0  0  0  0  0  0
   28.8163  -37.8306  -56.0127 O   0  0  0  0  0  0  0  0  0  0  0  0
   27.4262  -37.1530  -57.9941 O   0  0  0  0  0  0  0  0  0  0  0  0
   26.0775  -35.0846  -55.2601 P   0  0  1  0  0  0  0  0  0  0  0  0
   26.5207  -34.7449  -53.8759 O   0  0  0  0  0  0  0  0  0  0  0  0
   26.2971  -34.0791  -56.3407 O   0  0  0  0  0  0  0  0  0  0  0  0
   26.7778  -36.4602  -55.6876 O   0  0  0  0  0  0  0  0  0  0  0  0
   24.5327  -35.5063  -55.2112 O   0  0  0  0  0  0  0  0  0  0  0  0
   23.7927  -35.7877  -56.4194 C   0  0  0  0  0  0  0  0  0  0  0  0
   22.9393  -37.0064  -56.1718 C   0  0  1  0  0  0  0  0  0  0  0  0
   23.1185  -37.4269  -54.7944 O   0  0  0  0  0  0  0  0  0  0  0  0
   21.4259  -36.8292  -56.3697 C   0  0  1  0  0  0  0  0  0  0  0  0
   20.8722  -37.9186  -57.0931 O   0  0  0  0  0  0  0  0  0  0  0  0
   20.8895  -36.8186  -54.9373 C   0  0  1  0  0  0  0  0  0  0  0  0
   19.5548  -37.2630  -54.8373 O   0  0  0  0  0  0  0  0  0  0  0  0
   21.8686  -37.7570  -54.2422 C   0  0  2  0  0  0  0  0  0  0  0  0
   21.9047  -37.5378  -52.8037 N   0  0  0  0  0  0  0  0  0  0  0  0
   22.8693  -36.8530  -52.1096 C   0  0  0  0  0  0  0  0  0  0  0  0
   22.6336  -36.7828  -50.8248 N   0  0  0  0  0  0  0  0  0  0  0  0
   21.4351  -37.4597  -50.6563 C   0  0  0  0  0  0  0  0  0  0  0  0
   20.6547  -37.7332  -49.5172 C   0  0  0  0  0  0  0  0  0  0  0  0
   20.9784  -37.3438  -48.2877 N   0  0  0  0  0  0  0  0  0  0  0  0
   19.5129  -38.4366  -49.6973 N   0  0  0  0  0  0  0  0  0  0  0  0
   19.1918  -38.8242  -50.9371 C   0  0  0  0  0  0  0  0  0  0  0  0
   19.8453  -38.6235  -52.0783 N   0  0  0  0  0  0  0  0  0  0  0  0
   20.9728  -37.9264  -51.8709 C   0  0  0  0  0  0  0  0  0  0  0  0
   23.1530  -34.9297  -56.6735 H   0  0  0  0  0  0  0  0  0  0  0  0
   24.4832  -35.9691  -57.2563 H   0  0  0  0  0  0  0  0  0  0  0  0
   23.2785  -37.7333  -56.9244 H   0  0  0  0  0  0  0  0  0  0  0  0
   21.1736  -35.9253  -56.9435 H   0  0  0  0  0  0  0  0  0  0  0  0
   20.5282  -38.5956  -56.4579 H   0  0  0  0  0  0  0  0  0  0  0  0
   20.8394  -35.8116  -54.4975 H   0  0  0  0  0  0  0  0  0  0  0  0
   19.3052  -37.3461  -53.8829 H   0  0  0  0  0  0  0  0  0  0  0  0
   21.5832  -38.8092  -54.3887 H   0  0  0  0  0  0  0  0  0  0  0  0
   23.7544  -36.4067  -52.5866 H   0  0  0  0  0  0  0  0  0  0  0  0
   20.3632  -37.5764  -47.4950 H   0  0  0  0  0  0  0  0  0  0  0  0
   21.8444  -36.8095  -48.1279 H   0  0  0  0  0  0  0  0  0  0  0  0
   18.2526  -39.3900  -51.0253 H   0  0  0  0  0  0  0  0  0  0  0  0
  1  2  2  0
  1  3  1  1
  1  4  1  0
  1  8  1  0
  5  6  2  0
  5  7  1  6
  5  8  1  0
  5  9  1  0
  9 10  1  0
 11 10  1  0
 11 12  1  0
 11 13  1  0
 12 17  1  0
 13 14  1  0
 13 15  1  0
 15 16  1  0
 15 17  1  0
 17 18  1  0
 18 19  1  0
 18 27  1  0
 19 20  2  0
 20 21  1  0
 21 22  2  0
 21 27  1  0
 22 23  1  0
 22 24  1  0
 24 25  2  0
 25 26  1  0
 26 27  2  0
 10 28  1  0
 10 29  1  0
 11 30  1  6
 13 31  1  6
 14 32  1  0
 15 33  1  1
 16 34  1  0
 17 35  1  1
 19 36  1  0
 23 37  1  0
 23 38  1  0
 25 39  1  0
M  CHG  3   3  -1   4  -1   7  -1
M  END
>  <filename_input>  (18) 
8C3N_ADP_docked.sdf

>  <pdb_id>  (18) 
8C3N_ADP

>  <pose_rank>  (18) 
17

>  <num_atoms_heavy>  (18) 
27

>  <num_torsions>  (18) 
6

>  <pose>  (18) 
[22.93933739497617, -37.00641307076534, -56.171751090253636, 1.7742905919144012, 1.6980709669729848, 2.0310580070042255, -0.6533262360817256, 5.212322528678175, -0.9839382837607841, 0.24806325018829808, -0.7018666900214708, -1.8727941905711603]

>  <energy>  (18) 
-373.21471304692375

>  <inter_energy>  (18) 
-394.1286912185225

>  <intra_energy>  (18) 
16.5871032577092

>  <rmsd>  (18) 
7.98595

>  <sdf_rank>  (18) 
0

$$$$

     RDKit          3D

 39 41  0  0  0  0  0  0  0  0999 V2000
   27.2656  -36.1573  -57.7501 P   0  0  2  0  0  0  0  0  0  0  0  0
   27.6594  -34.7035  -57.6951 O   0  0  0  0  0  0  0  0  0  0  0  0
   28.4447  -37.0896  -57.6213 O   0  0  0  0  0  0  0  0  0  0  0  0
   26.3804  -36.4925  -58.9250 O   0  0  0  0  0  0  0  0  0  0  0  0
   25.5071  -35.4059  -55.5500 P   0  0  1  0  0  0  0  0  0  0  0  0
   26.4093  -34.7691  -54.5458 O   0  0  0  0  0  0  0  0  0  0  0  0
   24.7300  -34.5203  -56.4659 O   0  0  0  0  0  0  0  0  0  0  0  0
   26.3761  -36.4220  -56.4320 O   0  0  0  0  0  0  0  0  0  0  0  0
   24.5161  -36.4044  -54.7835 O   0  0  0  0  0  0  0  0  0  0  0  0
   23.1270  -36.5210  -55.1623 C   0  0  0  0  0  0  0  0  0  0  0  0
   22.6107  -37.8404  -54.6453 C   0  0  1  0  0  0  0  0  0  0  0  0
   23.3070  -38.1611  -53.4130 O   0  0  0  0  0  0  0  0  0  0  0  0
   21.1112  -37.9026  -54.3159 C   0  0  1  0  0  0  0  0  0  0  0  0
   20.5259  -39.0971  -54.8133 O   0  0  0  0  0  0  0  0  0  0  0  0
   21.0936  -37.9024  -52.7864 C   0  0  1  0  0  0  0  0  0  0  0  0
   19.9584  -38.5369  -52.2408 O   0  0  0  0  0  0  0  0  0  0  0  0
   22.3847  -38.6478  -52.4704 C   0  0  2  0  0  0  0  0  0  0  0  0
   22.8677  -38.3552  -51.1288 N   0  0  0  0  0  0  0  0  0  0  0  0
   23.9014  -37.5152  -50.8021 C   0  0  0  0  0  0  0  0  0  0  0  0
   24.1008  -37.4138  -49.5131 N   0  0  0  0  0  0  0  0  0  0  0  0
   23.1360  -38.2347  -48.9491 C   0  0  0  0  0  0  0  0  0  0  0  0
   22.8277  -38.5530  -47.6129 C   0  0  0  0  0  0  0  0  0  0  0  0
   23.4849  -38.0641  -46.5654 N   0  0  0  0  0  0  0  0  0  0  0  0
   21.8031  -39.4097  -47.3961 N   0  0  0  0  0  0  0  0  0  0  0  0
   21.1447  -39.8969  -48.4541 C   0  0  0  0  0  0  0  0  0  0  0  0
   21.3443  -39.6676  -49.7493 N   0  0  0  0  0  0  0  0  0  0  0  0
   22.3656  -38.8177  -49.9356 C   0  0  0  0  0  0  0  0  0  0  0  0
   22.5494  -35.6955  -54.7208 H   0  0  0  0  0  0  0  0  0  0  0  0
   23.0246  -36.4734  -56.2565 H   0  0  0  0  0  0  0  0  0  0  0  0
   22.7872  -38.5442  -55.4721 H   0  0  0  0  0  0  0  0  0  0  0  0
   20.5410  -37.0761  -54.7652 H   0  0  0  0  0  0  0  0  0  0  0  0
   20.2460  -39.6682  -54.0546 H   0  0  0  0  0  0  0  0  0  0  0  0
   21.0359  -36.8940  -52.3508 H   0  0  0  0  0  0  0  0  0  0  0  0
   20.0079  -38.5092  -51.2524 H   0  0  0  0  0  0  0  0  0  0  0  0
   22.2368  -39.7368  -52.5163 H   0  0  0  0  0  0  0  0  0  0  0  0
   24.5038  -36.9794  -51.5504 H   0  0  0  0  0  0  0  0  0  0  0  0
   23.2091  -38.3371  -45.6113 H   0  0  0  0  0  0  0  0  0  0  0  0
   24.2696  -37.4124  -46.7081 H   0  0  0  0  0  0  0  0  0  0  0  0
   20.3201  -40.5860  -48.2194 H   0  0  0  0  0  0  0  0  0  0  0  0
  1  2  2  0
  1  3  1  1
  1  4  1  0
  1  8  1  0
  5  6  2  0
  5  7  1  6
  5  8  1  0
  5  9  1  0
  9 10  1  0
 11 10  1  0
 11 12  1  0
 11 13  1  0
 12 17  1  0
 13 14  1  0
 13 15  1  0
 15 16  1  0
 15 17  1  0
 17 18  1  0
 18 19  1  0
 18 27  1  0
 19 20  2  0
 20 21  1  0
 21 22  2  0
 21 27  1  0
 22 23  1  0
 22 24  1  0
 24 25  2  0
 25 26  1  0
 26 27  2  0
 10 28  1  0
 10 29  1  0
 11 30  1  6
 13 31  1  6
 14 32  1  0
 15 33  1  1
 16 34  1  0
 17 35  1  1
 19 36  1  0
 23 37  1  0
 23 38  1  0
 25 39  1  0
M  CHG  3   3  -1   4  -1   7  -1
M  END
>  <filename_input>  (19) 
8C3N_ADP_docked.sdf

>  <pdb_id>  (19) 
8C3N_ADP

>  <pose_rank>  (19) 
18

>  <num_atoms_heavy>  (19) 
27

>  <num_torsions>  (19) 
6

>  <pose>  (19) 
[22.61072356026694, -37.840425240570454, -54.645274434185524, 2.152875862414872, 1.9962211821165343, 1.8280110198621928, -0.6714603495893012, 5.723900114472983, -0.6092880953098766, -0.35020664596997564, -0.3824605309219721, -1.8050441247274445]

>  <energy>  (19) 
-420.81744978480305

>  <inter_energy>  (19) 
-431.00846332291957

>  <intra_energy>  (19) 
9.959145573875887

>  <rmsd>  (19) 
8.47226

>  <sdf_rank>  (19) 
0

$$$$

     RDKit          3D

 39 41  0  0  0  0  0  0  0  0999 V2000
   25.1880  -38.4155  -50.4820 P   0  0  2  0  0  0  0  0  0  0  0  0
   25.9017  -38.5614  -51.8015 O   0  0  0  0  0  0  0  0  0  0  0  0
   25.5719  -37.1572  -49.7436 O   0  0  0  0  0  0  0  0  0  0  0  0
   25.2714  -39.6494  -49.6179 O   0  0  0  0  0  0  0  0  0  0  0  0
   22.4160  -37.6893  -49.9473 P   0  0  1  0  0  0  0  0  0  0  0  0
   22.6382  -38.1386  -48.5413 O   0  0  0  0  0  0  0  0  0  0  0  0
   22.2426  -36.2297  -50.2052 O   0  0  0  0  0  0  0  0  0  0  0  0
   23.6282  -38.2295  -50.8441 O   0  0  0  0  0  0  0  0  0  0  0  0
   21.1752  -38.5027  -50.5517 O   0  0  0  0  0  0  0  0  0  0  0  0
   21.3683  -39.7372  -51.2765 C   0  0  0  0  0  0  0  0  0  0  0  0
   20.6136  -39.6377  -52.5786 C   0  0  1  0  0  0  0  0  0  0  0  0
   20.9896  -38.4020  -53.2402 O   0  0  0  0  0  0  0  0  0  0  0  0
   20.8641  -40.7600  -53.5979 C   0  0  1  0  0  0  0  0  0  0  0  0
   19.6465  -41.2126  -54.1718 O   0  0  0  0  0  0  0  0  0  0  0  0
   21.7266  -40.0756  -54.6596 C   0  0  1  0  0  0  0  0  0  0  0  0
   21.5996  -40.6533  -55.9399 O   0  0  0  0  0  0  0  0  0  0  0  0
   21.1913  -38.6497  -54.6092 C   0  0  2  0  0  0  0  0  0  0  0  0
   22.1499  -37.6894  -55.1361 N   0  0  0  0  0  0  0  0  0  0  0  0
   23.2428  -37.1867  -54.4775 C   0  0  0  0  0  0  0  0  0  0  0  0
   23.9524  -36.3613  -55.2032 N   0  0  0  0  0  0  0  0  0  0  0  0
   23.2911  -36.3168  -56.4212 C   0  0  0  0  0  0  0  0  0  0  0  0
   23.5511  -35.6162  -57.6142 C   0  0  0  0  0  0  0  0  0  0  0  0
   24.5844  -34.7960  -57.7803 N   0  0  0  0  0  0  0  0  0  0  0  0
   22.6900  -35.7944  -58.6427 N   0  0  0  0  0  0  0  0  0  0  0  0
   21.6531  -36.6222  -58.4698 C   0  0  0  0  0  0  0  0  0  0  0  0
   21.3115  -37.3323  -57.3979 N   0  0  0  0  0  0  0  0  0  0  0  0
   22.1797  -37.1359  -56.3940 C   0  0  0  0  0  0  0  0  0  0  0  0
   22.4393  -39.8888  -51.4767 H   0  0  0  0  0  0  0  0  0  0  0  0
   20.9991  -40.5884  -50.6856 H   0  0  0  0  0  0  0  0  0  0  0  0
   19.5554  -39.7010  -52.2850 H   0  0  0  0  0  0  0  0  0  0  0  0
   21.3353  -41.6468  -53.1490 H   0  0  0  0  0  0  0  0  0  0  0  0
   19.0100  -41.4492  -53.4514 H   0  0  0  0  0  0  0  0  0  0  0  0
   22.8061  -40.1600  -54.4657 H   0  0  0  0  0  0  0  0  0  0  0  0
   21.3879  -41.6160  -55.8480 H   0  0  0  0  0  0  0  0  0  0  0  0
   20.2807  -38.5449  -55.2175 H   0  0  0  0  0  0  0  0  0  0  0  0
   23.4978  -37.4516  -53.4407 H   0  0  0  0  0  0  0  0  0  0  0  0
   24.7187  -34.3125  -58.6798 H   0  0  0  0  0  0  0  0  0  0  0  0
   25.2505  -34.6442  -57.0095 H   0  0  0  0  0  0  0  0  0  0  0  0
   20.9875  -36.7313  -59.3388 H   0  0  0  0  0  0  0  0  0  0  0  0
  1  2  2  0
  1  3  1  1
  1  4  1  0
  1  8  1  0
  5  6  2  0
  5  7  1  1
  5  8  1  0
  5  9  1  0
  9 10  1  0
 11 10  1  0
 11 12  1  0
 11 13  1  0
 12 17  1  0
 13 14  1  0
 13 15  1  0
 15 16  1  0
 15 17  1  0
 17 18  1  0
 18 19  1  0
 18 27  1  0
 19 20  2  0
 20 21  1  0
 21 22  2  0
 21 27  1  0
 22 23  1  0
 22 24  1  0
 24 25  2  0
 25 26  1  0
 26 27  2  0
 10 28  1  0
 10 29  1  0
 11 30  1  1
 13 31  1  1
 14 32  1  0
 15 33  1  1
 16 34  1  0
 17 35  1  6
 19 36  1  0
 23 37  1  0
 23 38  1  0
 25 39  1  0
M  CHG  3   3  -1   4  -1   7  -1
M  END
>  <filename_input>  (20) 
8C3N_ADP_docked.sdf

>  <pdb_id>  (20) 
8C3N_ADP

>  <pose_rank>  (20) 
19

>  <num_atoms_heavy>  (20) 
27

>  <num_torsions>  (20) 
6

>  <pose>  (20) 
[20.613647694088737, -39.63770541868169, -52.57864122444857, 0.15593141723115797, -5.732464447767883, -1.2845858160504813, -0.25393885588325604, -0.21974377186948843, -5.653352453820768, -4.414090005745008, 0.49669084878888137, 1.1862814564884396]

>  <energy>  (20) 
-372.98979828810315

>  <inter_energy>  (20) 
-370.4037480210446

>  <intra_energy>  (20) 
1.758391277430551

>  <rmsd>  (20) 
3.36388

>  <sdf_rank>  (20) 
0

$$$$

     RDKit          3D

 39 41  0  0  0  0  0  0  0  0999 V2000
   23.8113  -36.5468  -60.4443 P   0  0  2  0  0  0  0  0  0  0  0  0
   25.2087  -36.0907  -60.7771 O   0  0  0  0  0  0  0  0  0  0  0  0
   23.4292  -37.8264  -61.1463 O   0  0  0  0  0  0  0  0  0  0  0  0
   22.7751  -35.4615  -60.6015 O   0  0  0  0  0  0  0  0  0  0  0  0
   24.5652  -36.1935  -57.6507 P   0  0  1  0  0  0  0  0  0  0  0  0
   26.0287  -36.4688  -57.7521 O   0  0  0  0  0  0  0  0  0  0  0  0
   24.1141  -34.7720  -57.5967 O   0  0  0  0  0  0  0  0  0  0  0  0
   23.8322  -36.9193  -58.8760 O   0  0  0  0  0  0  0  0  0  0  0  0
   23.9809  -37.0008  -56.3964 O   0  0  0  0  0  0  0  0  0  0  0  0
   22.5850  -36.9171  -56.0340 C   0  0  0  0  0  0  0  0  0  0  0  0
   22.1876  -38.2264  -55.3996 C   0  0  1  0  0  0  0  0  0  0  0  0
   22.9744  -38.4168  -54.1951 O   0  0  0  0  0  0  0  0  0  0  0  0
   20.7172  -38.3574  -54.9731 C   0  0  1  0  0  0  0  0  0  0  0  0
   20.1834  -39.6175  -55.3527 O   0  0  0  0  0  0  0  0  0  0  0  0
   20.7893  -38.2515  -53.4489 C   0  0  1  0  0  0  0  0  0  0  0  0
   19.7321  -38.9149  -52.7922 O   0  0  0  0  0  0  0  0  0  0  0  0
   22.1428  -38.8922  -53.1662 C   0  0  2  0  0  0  0  0  0  0  0  0
   22.6834  -38.4775  -51.8799 N   0  0  0  0  0  0  0  0  0  0  0  0
   23.5648  -37.4496  -51.6617 C   0  0  0  0  0  0  0  0  0  0  0  0
   23.8595  -37.2773  -50.3989 N   0  0  0  0  0  0  0  0  0  0  0  0
   23.1241  -38.2490  -49.7372 C   0  0  0  0  0  0  0  0  0  0  0  0
   23.0066  -38.5828  -48.3747 C   0  0  0  0  0  0  0  0  0  0  0  0
   23.6530  -37.9507  -47.3997 N   0  0  0  0  0  0  0  0  0  0  0  0
   22.1874  -39.6105  -48.0526 N   0  0  0  0  0  0  0  0  0  0  0  0
   21.5386  -40.2416  -49.0380 C   0  0  0  0  0  0  0  0  0  0  0  0
   21.5705  -40.0144  -50.3484 N   0  0  0  0  0  0  0  0  0  0  0  0
   22.3905  -38.9932  -50.6398 C   0  0  0  0  0  0  0  0  0  0  0  0
   22.4338  -36.0950  -55.3190 H   0  0  0  0  0  0  0  0  0  0  0  0
   21.9704  -36.7229  -56.9254 H   0  0  0  0  0  0  0  0  0  0  0  0
   22.3611  -38.9741  -56.1876 H   0  0  0  0  0  0  0  0  0  0  0  0
   20.0687  -37.6010  -55.4392 H   0  0  0  0  0  0  0  0  0  0  0  0
   19.9620  -40.1400  -54.5415 H   0  0  0  0  0  0  0  0  0  0  0  0
   20.6912  -37.2205  -53.0780 H   0  0  0  0  0  0  0  0  0  0  0  0
   19.8528  -38.8391  -51.8125 H   0  0  0  0  0  0  0  0  0  0  0  0
   22.0642  -39.9888  -53.1308 H   0  0  0  0  0  0  0  0  0  0  0  0
   23.9829  -36.8308  -52.4694 H   0  0  0  0  0  0  0  0  0  0  0  0
   23.5233  -38.2444  -46.4210 H   0  0  0  0  0  0  0  0  0  0  0  0
   24.2833  -37.1673  -47.6231 H   0  0  0  0  0  0  0  0  0  0  0  0
   20.8849  -41.0666  -48.7188 H   0  0  0  0  0  0  0  0  0  0  0  0
  1  2  2  0
  1  3  1  6
  1  4  1  0
  1  8  1  0
  5  6  2  0
  5  7  1  1
  5  8  1  0
  5  9  1  0
  9 10  1  0
 11 10  1  0
 11 12  1  0
 11 13  1  0
 12 17  1  0
 13 14  1  0
 13 15  1  0
 15 16  1  0
 15 17  1  0
 17 18  1  0
 18 19  1  0
 18 27  1  0
 19 20  2  0
 20 21  1  0
 21 22  2  0
 21 27  1  0
 22 23  1  0
 22 24  1  0
 24 25  2  0
 25 26  1  0
 26 27  2  0
 10 28  1  0
 10 29  1  0
 11 30  1  6
 13 31  1  6
 14 32  1  0
 15 33  1  6
 16 34  1  0
 17 35  1  1
 19 36  1  0
 23 37  1  0
 23 38  1  0
 25 39  1  0
M  CHG  3   3  -1   4  -1   7  -1
M  END
>  <filename_input>  (21) 
8C3N_ADP_docked.sdf

>  <pdb_id>  (21) 
8C3N_ADP

>  <pose_rank>  (21) 
20

>  <num_atoms_heavy>  (21) 
27

>  <num_torsions>  (21) 
6

>  <pose>  (21) 
[22.18756753039083, -38.22644989323298, -55.39956448979786, 2.1813798559798703, 2.127372424762126, 1.6903461505571693, -0.5314583066851892, 6.251173337411366, -0.7758290571632788, 0.3217696373661178, -0.16126191553966843, -1.5544970463874548]

>  <energy>  (21) 
-381.17870417774793

>  <inter_energy>  (21) 
-380.29912001618766

>  <intra_energy>  (21) 
4.726685614529805

>  <rmsd>  (21) 
8.53376

>  <sdf_rank>  (21) 
0

$$$$

     RDKit          3D

 39 41  0  0  0  0  0  0  0  0999 V2000
   20.8377  -38.7838  -56.2039 P   0  0  2  0  0  0  0  0  0  0  0  0
   22.0157  -38.1656  -56.9123 O   0  0  0  0  0  0  0  0  0  0  0  0
   20.7806  -40.2833  -56.3596 O   0  0  0  0  0  0  0  0  0  0  0  0
   19.5261  -38.1117  -56.5269 O   0  0  0  0  0  0  0  0  0  0  0  0
   20.0529  -38.4898  -53.4119 P   0  0  1  0  0  0  0  0  0  0  0  0
   19.3191  -37.1913  -53.4706 O   0  0  0  0  0  0  0  0  0  0  0  0
   19.2581  -39.7529  -53.4120 O   0  0  0  0  0  0  0  0  0  0  0  0
   21.0905  -38.5352  -54.6313 O   0  0  0  0  0  0  0  0  0  0  0  0
   21.0363  -38.4624  -52.1475 O   0  0  0  0  0  0  0  0  0  0  0  0
   22.3008  -37.7656  -52.1949 C   0  0  0  0  0  0  0  0  0  0  0  0
   22.9191  -37.8252  -50.8205 C   0  0  1  0  0  0  0  0  0  0  0  0
   23.6577  -39.0683  -50.6969 O   0  0  0  0  0  0  0  0  0  0  0  0
   23.9100  -36.7042  -50.4708 C   0  0  1  0  0  0  0  0  0  0  0  0
   23.6748  -36.2011  -49.1637 O   0  0  0  0  0  0  0  0  0  0  0  0
   25.2652  -37.4109  -50.5292 C   0  0  1  0  0  0  0  0  0  0  0  0
   26.2408  -36.8175  -49.7015 O   0  0  0  0  0  0  0  0  0  0  0  0
   24.8919  -38.8161  -50.0728 C   0  0  2  0  0  0  0  0  0  0  0  0
   25.8641  -39.8070  -50.5107 N   0  0  0  0  0  0  0  0  0  0  0  0
   27.0014  -39.5640  -51.2379 C   0  0  0  0  0  0  0  0  0  0  0  0
   27.7117  -40.6387  -51.4658 N   0  0  0  0  0  0  0  0  0  0  0  0
   27.0035  -41.6580  -50.8474 C   0  0  0  0  0  0  0  0  0  0  0  0
   27.2411  -43.0407  -50.7321 C   0  0  0  0  0  0  0  0  0  0  0  0
   28.2973  -43.6560  -51.2556 N   0  0  0  0  0  0  0  0  0  0  0  0
   26.3327  -43.7751  -50.0492 N   0  0  0  0  0  0  0  0  0  0  0  0
   25.2729  -43.1499  -49.5235 C   0  0  0  0  0  0  0  0  0  0  0  0
   24.9485  -41.8604  -49.5668 N   0  0  0  0  0  0  0  0  0  0  0  0
   25.8637  -41.1567  -50.2504 C   0  0  0  0  0  0  0  0  0  0  0  0
   22.9664  -38.2498  -52.9247 H   0  0  0  0  0  0  0  0  0  0  0  0
   22.1489  -36.7198  -52.5000 H   0  0  0  0  0  0  0  0  0  0  0  0
   22.0655  -37.7250  -50.1339 H   0  0  0  0  0  0  0  0  0  0  0  0
   23.8320  -35.8397  -51.1465 H   0  0  0  0  0  0  0  0  0  0  0  0
   23.9840  -36.8624  -48.4950 H   0  0  0  0  0  0  0  0  0  0  0  0
   25.7368  -37.3687  -51.5221 H   0  0  0  0  0  0  0  0  0  0  0  0
   26.0011  -36.9633  -48.7521 H   0  0  0  0  0  0  0  0  0  0  0  0
   24.8552  -38.8813  -48.9754 H   0  0  0  0  0  0  0  0  0  0  0  0
   27.2881  -38.5637  -51.5945 H   0  0  0  0  0  0  0  0  0  0  0  0
   28.4131  -44.6724  -51.1353 H   0  0  0  0  0  0  0  0  0  0  0  0
   28.9995  -43.1163  -51.7813 H   0  0  0  0  0  0  0  0  0  0  0  0
   24.5688  -43.7946  -48.9772 H   0  0  0  0  0  0  0  0  0  0  0  0
  1  2  2  0
  1  3  1  1
  1  4  1  0
  1  8  1  0
  5  6  2  0
  5  7  1  1
  5  8  1  0
  5  9  1  0
  9 10  1  0
 11 10  1  0
 11 12  1  0
 11 13  1  0
 12 17  1  0
 13 14  1  0
 13 15  1  0
 15 16  1  0
 15 17  1  0
 17 18  1  0
 18 19  1  0
 18 27  1  0
 19 20  2  0
 20 21  1  0
 21 22  2  0
 21 27  1  0
 22 23  1  0
 22 24  1  0
 24 25  2  0
 25 26  1  0
 26 27  2  0
 10 28  1  0
 10 29  1  0
 11 30  1  1
 13 31  1  6
 14 32  1  0
 15 33  1  6
 16 34  1  0
 17 35  1  1
 19 36  1  0
 23 37  1  0
 23 38  1  0
 25 39  1  0
M  CHG  3   3  -1   4  -1   7  -1
M  END
>  <filename_input>  (22) 
8C3N_ADP_docked.sdf

>  <pdb_id>  (22) 
8C3N_ADP

>  <pose_rank>  (22) 
21

>  <num_atoms_heavy>  (22) 
27

>  <num_torsions>  (22) 
6

>  <pose>  (22) 
[22.91905188363233, -37.825248405934104, -50.820491649033755, 2.941999064165215, -0.1490876964202924, -0.8335141918164815, 7.416411811810942, 69.49394972227716, 49.92865392814234, 2.0999760482631538, -0.20359639256055248, 6.782925588693573]

>  <energy>  (22) 
-258.9030413436599

>  <inter_energy>  (22) 
-264.0968635606337

>  <intra_energy>  (22) 
6.6949158610551525

>  <rmsd>  (22) 
7.75243

>  <sdf_rank>  (22) 
0

$$$$

     RDKit          3D

 39 41  0  0  0  0  0  0  0  0999 V2000
   29.3201  -36.2084  -57.5739 P   0  0  2  0  0  0  0  0  0  0  0  0
   29.3642  -34.8009  -58.1112 O   0  0  0  0  0  0  0  0  0  0  0  0
   30.6480  -36.9170  -57.6761 O   0  0  0  0  0  0  0  0  0  0  0  0
   28.1778  -37.0238  -58.1275 O   0  0  0  0  0  0  0  0  0  0  0  0
   27.6827  -35.7464  -55.2069 P   0  0  1  0  0  0  0  0  0  0  0  0
   28.0326  -35.3438  -53.8129 O   0  0  0  0  0  0  0  0  0  0  0  0
   26.8629  -34.8095  -56.0299 O   0  0  0  0  0  0  0  0  0  0  0  0
   29.0413  -36.0668  -55.9925 O   0  0  0  0  0  0  0  0  0  0  0  0
   26.9848  -37.1877  -55.1608 O   0  0  0  0  0  0  0  0  0  0  0  0
   25.9685  -37.4987  -54.1824 C   0  0  0  0  0  0  0  0  0  0  0  0
   24.6640  -37.7016  -54.9119 C   0  0  1  0  0  0  0  0  0  0  0  0
   23.7971  -38.5280  -54.0924 O   0  0  0  0  0  0  0  0  0  0  0  0
   23.8610  -36.4324  -55.2362 C   0  0  1  0  0  0  0  0  0  0  0  0
   23.3676  -36.4638  -56.5675 O   0  0  0  0  0  0  0  0  0  0  0  0
   22.7010  -36.4944  -54.2410 C   0  0  1  0  0  0  0  0  0  0  0  0
   21.5422  -35.8289  -54.6918 O   0  0  0  0  0  0  0  0  0  0  0  0
   22.4949  -37.9988  -54.1123 C   0  0  2  0  0  0  0  0  0  0  0  0
   21.8132  -38.3509  -52.8753 N   0  0  0  0  0  0  0  0  0  0  0  0
   20.6186  -39.0158  -52.7661 C   0  0  0  0  0  0  0  0  0  0  0  0
   20.2536  -39.2282  -51.5280 N   0  0  0  0  0  0  0  0  0  0  0  0
   21.2720  -38.6731  -50.7679 C   0  0  0  0  0  0  0  0  0  0  0  0
   21.4701  -38.5762  -49.3776 C   0  0  0  0  0  0  0  0  0  0  0  0
   20.6191  -39.0530  -48.4740 N   0  0  0  0  0  0  0  0  0  0  0  0
   22.5943  -37.9567  -48.9493 N   0  0  0  0  0  0  0  0  0  0  0  0
   23.4474  -37.4805  -49.8635 C   0  0  0  0  0  0  0  0  0  0  0  0
   23.3661  -37.5157  -51.1909 N   0  0  0  0  0  0  0  0  0  0  0  0
   22.2427  -38.1327  -51.5878 C   0  0  0  0  0  0  0  0  0  0  0  0
   26.2401  -38.4171  -53.6414 H   0  0  0  0  0  0  0  0  0  0  0  0
   25.8754  -36.6788  -53.4551 H   0  0  0  0  0  0  0  0  0  0  0  0
   24.9568  -38.1504  -55.8726 H   0  0  0  0  0  0  0  0  0  0  0  0
   24.4629  -35.5150  -55.1579 H   0  0  0  0  0  0  0  0  0  0  0  0
   22.3797  -36.5266  -56.5519 H   0  0  0  0  0  0  0  0  0  0  0  0
   22.9144  -35.9846  -53.2899 H   0  0  0  0  0  0  0  0  0  0  0  0
   21.0123  -35.5246  -53.9128 H   0  0  0  0  0  0  0  0  0  0  0  0
   21.8713  -38.3864  -54.9314 H   0  0  0  0  0  0  0  0  0  0  0  0
   20.0257  -39.3389  -53.6345 H   0  0  0  0  0  0  0  0  0  0  0  0
   20.8229  -38.9495  -47.4697 H   0  0  0  0  0  0  0  0  0  0  0  0
   19.7561  -39.5258  -48.7784 H   0  0  0  0  0  0  0  0  0  0  0  0
   24.3450  -36.9894  -49.4595 H   0  0  0  0  0  0  0  0  0  0  0  0
  1  2  2  0
  1  3  1  1
  1  4  1  0
  1  8  1  0
  5  6  2  0
  5  7  1  6
  5  8  1  0
  5  9  1  0
  9 10  1  0
 11 10  1  0
 11 12  1  0
 11 13  1  0
 12 17  1  0
 13 14  1  0
 13 15  1  0
 15 16  1  0
 15 17  1  0
 17 18  1  0
 18 19  1  0
 18 27  1  0
 19 20  2  0
 20 21  1  0
 21 22  2  0
 21 27  1  0
 22 23  1  0
 22 24  1  0
 24 25  2  0
 25 26  1  0
 26 27  2  0
 10 28  1  0
 10 29  1  0
 11 30  1  6
 13 31  1  6
 14 32  1  0
 15 33  1  1
 16 34  1  0
 17 35  1  6
 19 36  1  0
 23 37  1  0
 23 38  1  0
 25 39  1  0
M  CHG  3   3  -1   4  -1   7  -1
M  END
>  <filename_input>  (23) 
8C3N_ADP_docked.sdf

>  <pdb_id>  (23) 
8C3N_ADP

>  <pose_rank>  (23) 
22

>  <num_atoms_heavy>  (23) 
27

>  <num_torsions>  (23) 
6

>  <pose>  (23) 
[24.664041651276325, -37.70162660404933, -54.911937213757746, -1.859117372469786, -0.3597987016740719, -2.917993488176344, -9.335034691823536, 20.466720210398073, -1.4103959624115299, -2.0239708113158486, -1.7503588024780476, -7.1768675778104285]

>  <energy>  (23) 
-403.5296505328781

>  <inter_energy>  (23) 
-398.2057625628702

>  <intra_energy>  (23) 
12.596158311022629

>  <rmsd>  (23) 
8.74388

>  <sdf_rank>  (23) 
0

$$$$

     RDKit          3D

 39 41  0  0  0  0  0  0  0  0999 V2000
   19.4171  -38.4566  -47.6333 P   0  0  2  0  0  0  0  0  0  0  0  0
   19.8122  -39.7133  -46.9010 O   0  0  0  0  0  0  0  0  0  0  0  0
   19.5972  -37.2114  -46.8007 O   0  0  0  0  0  0  0  0  0  0  0  0
   18.0528  -38.5410  -48.2719 O   0  0  0  0  0  0  0  0  0  0  0  0
   20.3066  -37.5932  -50.2716 P   0  0  1  0  0  0  0  0  0  0  0  0
   19.6656  -38.5624  -51.2084 O   0  0  0  0  0  0  0  0  0  0  0  0
   19.6562  -36.2650  -50.0725 O   0  0  0  0  0  0  0  0  0  0  0  0
   20.4683  -38.3055  -48.8461 O   0  0  0  0  0  0  0  0  0  0  0  0
   21.8340  -37.3937  -50.7118 O   0  0  0  0  0  0  0  0  0  0  0  0
   22.7932  -38.4684  -50.6029 C   0  0  0  0  0  0  0  0  0  0  0  0
   24.0167  -37.9336  -49.9016 C   0  0  1  0  0  0  0  0  0  0  0  0
   24.0629  -38.4869  -48.5608 O   0  0  0  0  0  0  0  0  0  0  0  0
   25.3710  -38.2665  -50.5468 C   0  0  1  0  0  0  0  0  0  0  0  0
   26.2170  -37.1264  -50.5808 O   0  0  0  0  0  0  0  0  0  0  0  0
   25.9494  -39.3261  -49.6075 C   0  0  1  0  0  0  0  0  0  0  0  0
   27.3593  -39.3628  -49.6075 O   0  0  0  0  0  0  0  0  0  0  0  0
   25.3791  -38.8827  -48.2657 C   0  0  2  0  0  0  0  0  0  0  0  0
   25.3494  -39.9716  -47.3003 N   0  0  0  0  0  0  0  0  0  0  0  0
   26.2099  -41.0384  -47.2513 C   0  0  0  0  0  0  0  0  0  0  0  0
   25.9708  -41.8534  -46.2563 N   0  0  0  0  0  0  0  0  0  0  0  0
   24.8862  -41.2897  -45.6015 C   0  0  0  0  0  0  0  0  0  0  0  0
   24.1588  -41.6841  -44.4626 C   0  0  0  0  0  0  0  0  0  0  0  0
   24.4250  -42.7795  -43.7575 N   0  0  0  0  0  0  0  0  0  0  0  0
   23.1296  -40.8954  -44.0757 N   0  0  0  0  0  0  0  0  0  0  0  0
   22.8678  -39.7937  -44.7884 C   0  0  0  0  0  0  0  0  0  0  0  0
   23.4828  -39.3246  -45.8708 N   0  0  0  0  0  0  0  0  0  0  0  0
   24.4963  -40.1255  -46.2333 C   0  0  0  0  0  0  0  0  0  0  0  0
   22.3616  -39.2961  -50.0210 H   0  0  0  0  0  0  0  0  0  0  0  0
   23.0597  -38.8447  -51.6016 H   0  0  0  0  0  0  0  0  0  0  0  0
   23.8998  -36.8407  -49.9465 H   0  0  0  0  0  0  0  0  0  0  0  0
   25.2755  -38.6038  -51.5894 H   0  0  0  0  0  0  0  0  0  0  0  0
   26.4269  -36.8435  -49.6555 H   0  0  0  0  0  0  0  0  0  0  0  0
   25.6839  -40.3546  -49.8936 H   0  0  0  0  0  0  0  0  0  0  0  0
   27.6891  -39.3714  -48.6741 H   0  0  0  0  0  0  0  0  0  0  0  0
   25.9912  -38.0866  -47.8168 H   0  0  0  0  0  0  0  0  0  0  0  0
   27.0216  -41.1935  -47.9773 H   0  0  0  0  0  0  0  0  0  0  0  0
   23.8537  -43.0125  -42.9327 H   0  0  0  0  0  0  0  0  0  0  0  0
   25.2023  -43.3951  -44.0361 H   0  0  0  0  0  0  0  0  0  0  0  0
   22.0228  -39.1890  -44.4275 H   0  0  0  0  0  0  0  0  0  0  0  0
  1  2  2  0
  1  3  1  1
  1  4  1  0
  1  8  1  0
  5  6  2  0
  5  7  1  1
  5  8  1  0
  5  9  1  0
  9 10  1  0
 11 10  1  0
 11 12  1  0
 11 13  1  0
 12 17  1  0
 13 14  1  0
 13 15  1  0
 15 16  1  0
 15 17  1  0
 17 18  1  0
 18 19  1  0
 18 27  1  0
 19 20  2  0
 20 21  1  0
 21 22  2  0
 21 27  1  0
 22 23  1  0
 22 24  1  0
 24 25  2  0
 25 26  1  0
 26 27  2  0
 10 28  1  0
 10 29  1  0
 11 30  1  1
 13 31  1  6
 14 32  1  0
 15 33  1  6
 16 34  1  0
 17 35  1  1
 19 36  1  0
 23 37  1  0
 23 38  1  0
 25 39  1  0
M  CHG  3   3  -1   4  -1   7  -1
M  END
>  <filename_input>  (24) 
8C3N_ADP_docked.sdf

>  <pdb_id>  (24) 
8C3N_ADP

>  <pose_rank>  (24) 
23

>  <num_atoms_heavy>  (24) 
27

>  <num_torsions>  (24) 
6

>  <pose>  (24) 
[24.0167353354859, -37.93355632856014, -49.90162881223703, 1.544277428252229, -1.351547529411125, -0.7578647507197336, 7.91907394781215, 69.88176878691137, 50.87903155463449, 2.3069197465475986, -0.3613070271251964, 6.709502861672297]

>  <energy>  (24) 
-388.00757008580973

>  <inter_energy>  (24) 
-406.28482947464295

>  <intra_energy>  (24) 
19.11332448184118

>  <rmsd>  (24) 
8.56332

>  <sdf_rank>  (24) 
0

$$$$

     RDKit          3D

 39 41  0  0  0  0  0  0  0  0999 V2000
   23.2505  -37.3638  -57.2276 P   0  0  2  0  0  0  0  0  0  0  0  0
   24.7271  -37.6494  -57.1293 O   0  0  0  0  0  0  0  0  0  0  0  0
   22.6388  -37.8719  -58.5096 O   0  0  0  0  0  0  0  0  0  0  0  0
   22.9001  -35.9242  -56.9426 O   0  0  0  0  0  0  0  0  0  0  0  0
   21.1550  -38.0239  -55.3117 P   0  0  1  0  0  0  0  0  0  0  0  0
   21.3365  -36.9811  -54.2592 O   0  0  0  0  0  0  0  0  0  0  0  0
   20.0908  -37.8173  -56.3371 O   0  0  0  0  0  0  0  0  0  0  0  0
   22.5563  -38.2311  -56.0595 O   0  0  0  0  0  0  0  0  0  0  0  0
   20.9552  -39.4423  -54.5942 O   0  0  0  0  0  0  0  0  0  0  0  0
   20.7055  -39.5369  -53.1746 C   0  0  0  0  0  0  0  0  0  0  0  0
   21.9045  -40.1878  -52.5315 C   0  0  1  0  0  0  0  0  0  0  0  0
   22.9372  -39.1843  -52.3515 O   0  0  0  0  0  0  0  0  0  0  0  0
   21.6769  -40.8178  -51.1485 C   0  0  1  0  0  0  0  0  0  0  0  0
   22.2874  -42.0969  -51.0609 O   0  0  0  0  0  0  0  0  0  0  0  0
   22.3704  -39.8352  -50.2035 C   0  0  1  0  0  0  0  0  0  0  0  0
   22.8281  -40.4348  -49.0118 O   0  0  0  0  0  0  0  0  0  0  0  0
   23.5129  -39.3322  -51.0775 C   0  0  2  0  0  0  0  0  0  0  0  0
   24.0181  -38.0442  -50.6251 N   0  0  0  0  0  0  0  0  0  0  0  0
   23.6516  -37.3838  -49.4802 C   0  0  0  0  0  0  0  0  0  0  0  0
   24.2897  -36.2554  -49.3045 N   0  0  0  0  0  0  0  0  0  0  0  0
   25.1359  -36.1635  -50.3993 C   0  0  0  0  0  0  0  0  0  0  0  0
   26.0749  -35.1904  -50.7905 C   0  0  0  0  0  0  0  0  0  0  0  0
   26.3265  -34.0841  -50.0970 N   0  0  0  0  0  0  0  0  0  0  0  0
   26.7514  -35.4040  -51.9427 N   0  0  0  0  0  0  0  0  0  0  0  0
   26.4949  -36.5198  -52.6352 C   0  0  0  0  0  0  0  0  0  0  0  0
   25.6388  -37.5014  -52.3642 N   0  0  0  0  0  0  0  0  0  0  0  0
   24.9810  -37.2636  -51.2193 C   0  0  0  0  0  0  0  0  0  0  0  0
   20.5566  -38.5313  -52.7541 H   0  0  0  0  0  0  0  0  0  0  0  0
   19.8004  -40.1327  -52.9852 H   0  0  0  0  0  0  0  0  0  0  0  0
   22.1700  -41.0060  -53.2171 H   0  0  0  0  0  0  0  0  0  0  0  0
   20.6121  -40.9742  -50.9210 H   0  0  0  0  0  0  0  0  0  0  0  0
   22.4045  -42.3422  -50.1090 H   0  0  0  0  0  0  0  0  0  0  0  0
   21.7038  -39.0432  -49.8314 H   0  0  0  0  0  0  0  0  0  0  0  0
   22.4567  -39.9482  -48.2338 H   0  0  0  0  0  0  0  0  0  0  0  0
   24.3664  -40.0257  -51.0546 H   0  0  0  0  0  0  0  0  0  0  0  0
   22.8953  -37.7656  -48.7786 H   0  0  0  0  0  0  0  0  0  0  0  0
   27.0270  -33.4105  -50.4383 H   0  0  0  0  0  0  0  0  0  0  0  0
   25.8210  -33.9008  -49.2186 H   0  0  0  0  0  0  0  0  0  0  0  0
   27.0751  -36.6431  -53.5615 H   0  0  0  0  0  0  0  0  0  0  0  0
  1  2  2  0
  1  3  1  6
  1  4  1  0
  1  8  1  0
  5  6  2  0
  5  7  1  6
  5  8  1  0
  5  9  1  0
  9 10  1  0
 11 10  1  0
 11 12  1  0
 11 13  1  0
 12 17  1  0
 13 14  1  0
 13 15  1  0
 15 16  1  0
 15 17  1  0
 17 18  1  0
 18 19  1  0
 18 27  1  0
 19 20  2  0
 20 21  1  0
 21 22  2  0
 21 27  1  0
 22 23  1  0
 22 24  1  0
 24 25  2  0
 25 26  1  0
 26 27  2  0
 10 28  1  0
 10 29  1  0
 11 30  1  6
 13 31  1  1
 14 32  1  0
 15 33  1  1
 16 34  1  0
 17 35  1  6
 19 36  1  0
 23 37  1  0
 23 38  1  0
 25 39  1  0
M  CHG  3   3  -1   4  -1   7  -1
M  END
>  <filename_input>  (25) 
8C3N_ADP_docked.sdf

>  <pdb_id>  (25) 
8C3N_ADP

>  <pose_rank>  (25) 
24

>  <num_atoms_heavy>  (25) 
27

>  <num_torsions>  (25) 
6

>  <pose>  (25) 
[21.904484277173385, -40.1878248192984, -52.53145770238155, -1.1418498106321175, -1.845880775046311, 0.040089737370306064, 1.2412838128000678, 0.29385465246511244, -5.356104671925054, -2.5909466718427634, -0.29371799732556364, 0.49507284363681037]

>  <energy>  (25) 
-304.75623598195676

>  <inter_energy>  (25) 
-305.2603234926789

>  <intra_energy>  (25) 
9.340498969183468

>  <rmsd>  (25) 
6.61924

>  <sdf_rank>  (25) 
0

$$$$

     RDKit          3D

 39 41  0  0  0  0  0  0  0  0999 V2000
   19.0300  -38.3370  -47.7140 P   0  0  2  0  0  0  0  0  0  0  0  0
   17.5370  -38.1750  -47.5860 O   0  0  0  0  0  0  0  0  0  0  0  0
   19.5020  -39.7250  -47.3580 O   0  0  0  0  0  0  0  0  0  0  0  0
   19.8110  -37.2550  -47.0100 O   0  0  0  0  0  0  0  0  0  0  0  0
   20.4180  -37.2300  -50.0260 P   0  0  1  0  0  0  0  0  0  0  0  0
   20.0370  -35.8090  -49.7740 O   0  0  0  0  0  0  0  0  0  0  0  0
   21.7940  -37.6710  -49.6530 O   0  0  0  0  0  0  0  0  0  0  0  0
   19.3570  -38.1730  -49.2840 O   0  0  0  0  0  0  0  0  0  0  0  0
   20.1340  -37.5680  -51.5660 O   0  0  0  0  0  0  0  0  0  0  0  0
   20.7610  -38.6960  -52.2150 C   0  0  0  0  0  0  0  0  0  0  0  0
   20.5790  -38.5390  -53.7040 C   0  0  1  0  0  0  0  0  0  0  0  0
   21.2840  -37.3460  -54.1350 O   0  0  0  0  0  0  0  0  0  0  0  0
   21.1080  -39.6860  -54.5790 C   0  0  1  0  0  0  0  0  0  0  0  0
   20.1730  -40.0330  -55.5900 O   0  0  0  0  0  0  0  0  0  0  0  0
   22.3680  -39.0880  -55.2070 C   0  0  1  0  0  0  0  0  0  0  0  0
   22.6970  -39.6610  -56.4530 O   0  0  0  0  0  0  0  0  0  0  0  0
   21.9770  -37.6200  -55.3270 C   0  0  2  0  0  0  0  0  0  0  0  0
   23.1420  -36.7520  -55.4170 N   0  0  0  0  0  0  0  0  0  0  0  0
   24.0920  -36.5630  -54.4460 C   0  0  0  0  0  0  0  0  0  0  0  0
   25.0500  -35.7490  -54.8080 N   0  0  0  0  0  0  0  0  0  0  0  0
   24.7170  -35.3780  -56.1020 C   0  0  0  0  0  0  0  0  0  0  0  0
   25.3420  -34.5270  -57.0330 C   0  0  0  0  0  0  0  0  0  0  0  0
   26.4740  -33.8720  -56.7930 N   0  0  0  0  0  0  0  0  0  0  0  0
   24.7440  -34.3730  -58.2370 N   0  0  0  0  0  0  0  0  0  0  0  0
   23.6060  -35.0360  -58.4730 C   0  0  0  0  0  0  0  0  0  0  0  0
   22.9310  -35.8610  -57.6770 N   0  0  0  0  0  0  0  0  0  0  0  0
   23.5440  -35.9940  -56.4910 C   0  0  0  0  0  0  0  0  0  0  0  0
   21.8333  -38.7184  -51.9705 H   0  0  0  0  0  0  0  0  0  0  0  0
   20.3043  -39.6360  -51.8718 H   0  0  0  0  0  0  0  0  0  0  0  0
   19.4883  -38.5063  -53.8426 H   0  0  0  0  0  0  0  0  0  0  0  0
   21.2927  -40.6079  -54.0081 H   0  0  0  0  0  0  0  0  0  0  0  0
   19.3328  -40.3448  -55.1694 H   0  0  0  0  0  0  0  0  0  0  0  0
   23.2776  -39.2663  -54.6147 H   0  0  0  0  0  0  0  0  0  0  0  0
   23.1846  -40.5102  -56.3073 H   0  0  0  0  0  0  0  0  0  0  0  0
   21.3843  -37.4392  -56.2359 H   0  0  0  0  0  0  0  0  0  0  0  0
   24.0523  -37.0483  -53.4596 H   0  0  0  0  0  0  0  0  0  0  0  0
   26.8805  -33.2636  -57.5179 H   0  0  0  0  0  0  0  0  0  0  0  0
   26.9443  -33.9731  -55.8822 H   0  0  0  0  0  0  0  0  0  0  0  0
   23.1653  -34.8759  -59.4681 H   0  0  0  0  0  0  0  0  0  0  0  0
  1  2  2  0
  1  3  1  1
  1  4  1  0
  1  8  1  0
  5  6  2  0
  5  7  1  1
  5  8  1  0
  5  9  1  0
  9 10  1  0
 11 10  1  0
 11 12  1  0
 11 13  1  0
 12 17  1  0
 13 14  1  0
 13 15  1  0
 15 16  1  0
 15 17  1  0
 17 18  1  0
 18 19  1  0
 18 27  1  0
 19 20  2  0
 20 21  1  0
 21 22  2  0
 21 27  1  0
 22 23  1  0
 22 24  1  0
 24 25  2  0
 25 26  1  0
 26 27  2  0
 10 28  1  0
 10 29  1  0
 11 30  1  1
 13 31  1  1
 14 32  1  0
 15 33  1  1
 16 34  1  0
 17 35  1  6
 19 36  1  0
 23 37  1  0
 23 38  1  0
 25 39  1  0
M  CHG  3   3  -1   4  -1   7  -1
M  END
>  <filename_input>  (26) 
8C3N_ADP_docked.sdf

>  <pdb_id>  (26) 
8C3N_ADP

>  <pose_rank>  (26) 
25

>  <num_atoms_heavy>  (26) 
27

>  <num_torsions>  (26) 
6

>  <pose>  (26) 
[20.579, -38.539, -53.704, 1e-06, 1e-06, 1e-06, 0.0, 0.0, 0.0, 0.0, 0.0, 0.0]

>  <energy>  (26) 
-554.7523575449267

>  <inter_energy>  (26) 
-560.0173279515711

>  <intra_energy>  (26) 
2.3723673767201814

>  <rmsd>  (26) 
0.0

>  <sdf_rank>  (26) 
0

$$$$
