
     RDKit          3D

 35 37  0  0  0  0  0  0  0  0999 V2000
   86.8382  -18.1989    3.7257 C   0  0  0  0  0  0  0  0  0  0  0  0
   85.4675  -18.0203    2.5218 S   0  0  0  0  0  0  0  0  0  0  0  0
   84.4043  -16.7734    3.3172 C   0  0  0  0  0  0  0  0  0  0  0  0
   84.4120  -15.3857    2.6491 C   0  0  1  0  0  0  0  0  0  0  0  0
   83.1548  -14.7020    2.7221 O   0  0  0  0  0  0  0  0  0  0  0  0
   84.5306  -13.2330    3.8084 C   0  0  2  0  0  0  0  0  0  0  0  0
   85.2141  -12.0092    3.7915 O   0  0  0  0  0  0  0  0  0  0  0  0
   85.3788  -14.4589    3.4035 C   0  0  2  0  0  0  0  0  0  0  0  0
   86.4431  -14.0487    2.5798 O   0  0  0  0  0  0  0  0  0  0  0  0
   83.3595  -13.3219    2.8254 C   0  0  2  0  0  0  0  0  0  0  0  0
   82.1907  -12.6640    3.3569 N   0  0  0  0  0  0  0  0  0  0  0  0
   81.6651  -12.8138    4.6017 C   0  0  0  0  0  0  0  0  0  0  0  0
   80.6140  -12.0702    4.8047 N   0  0  0  0  0  0  0  0  0  0  0  0
   80.4325  -11.3845    3.6274 C   0  0  0  0  0  0  0  0  0  0  0  0
   79.4834  -10.4230    3.2078 C   0  0  0  0  0  0  0  0  0  0  0  0
   78.4884   -9.9920    3.9832 N   0  0  0  0  0  0  0  0  0  0  0  0
   79.5938   -9.9265    1.9727 N   0  0  0  0  0  0  0  0  0  0  0  0
   80.6059  -10.3603    1.2248 C   0  0  0  0  0  0  0  0  0  0  0  0
   81.5421  -11.2543    1.4974 N   0  0  0  0  0  0  0  0  0  0  0  0
   81.4143  -11.7333    2.7215 C   0  0  0  0  0  0  0  0  0  0  0  0
   86.4370  -18.1467    4.7486 H   0  0  0  0  0  0  0  0  0  0  0  0
   87.3340  -19.1693    3.5755 H   0  0  0  0  0  0  0  0  0  0  0  0
   87.5662  -17.3881    3.5755 H   0  0  0  0  0  0  0  0  0  0  0  0
   83.3710  -17.1505    3.3074 H   0  0  0  0  0  0  0  0  0  0  0  0
   84.8081  -16.6279    4.3300 H   0  0  0  0  0  0  0  0  0  0  0  0
   84.6843  -15.5781    1.6009 H   0  0  0  0  0  0  0  0  0  0  0  0
   84.2175  -13.2576    4.8626 H   0  0  0  0  0  0  0  0  0  0  0  0
   85.3805  -11.7113    4.7208 H   0  0  0  0  0  0  0  0  0  0  0  0
   85.8265  -14.9710    4.2680 H   0  0  0  0  0  0  0  0  0  0  0  0
   87.2027  -13.7559    3.1433 H   0  0  0  0  0  0  0  0  0  0  0  0
   83.5573  -12.8345    1.8594 H   0  0  0  0  0  0  0  0  0  0  0  0
   82.0836  -13.4925    5.3595 H   0  0  0  0  0  0  0  0  0  0  0  0
   77.8247   -9.2896    3.6266 H   0  0  0  0  0  0  0  0  0  0  0  0
   78.3832  -10.3613    4.9390 H   0  0  0  0  0  0  0  0  0  0  0  0
   80.6743   -9.9052    0.2257 H   0  0  0  0  0  0  0  0  0  0  0  0
  1  2  1  0
  2  3  1  0
  4  3  1  0
  4  5  1  0
  4  8  1  0
  5 10  1  0
  6  7  1  0
  6  8  1  0
  6 10  1  0
  8  9  1  0
 10 11  1  0
 11 12  1  0
 11 20  1  0
 12 13  2  0
 13 14  1  0
 14 15  2  0
 14 20  1  0
 15 16  1  0
 15 17  1  0
 17 18  2  0
 18 19  1  0
 19 20  2  0
  1 21  1  0
  1 22  1  0
  1 23  1  0
  3 24  1  0
  3 25  1  0
  4 26  1  6
  6 27  1  1
  7 28  1  0
  8 29  1  1
  9 30  1  0
 10 31  1  6
 12 32  1  0
 16 33  1  0
 16 34  1  0
 18 35  1  0
M  END
>  <filename_input>  (1) 
8C5M_MTA_docked.sdf

>  <pdb_id>  (1) 
8C5M_MTA

>  <pose_rank>  (1) 
0

>  <num_atoms_heavy>  (1) 
20

>  <num_torsions>  (1) 
3

>  <pose>  (1) 
[84.41198913915724, -15.385664559327672, 2.6491204697295436, 0.12354360885792302, -0.1648261465255934, -0.07359441349299996, 0.20161700115616665, -0.43759395743386165, -3.493524708297907]

>  <energy>  (1) 
-865.5190544711808

>  <inter_energy>  (1) 
-856.3931606059654

>  <intra_energy>  (1) 
0.0

>  <rmsd>  (1) 
0.706002

>  <sdf_rank>  (1) 
0

$$$$

     RDKit          3D

 35 37  0  0  0  0  0  0  0  0999 V2000
   88.9345  -12.2043    4.2050 C   0  0  0  0  0  0  0  0  0  0  0  0
   87.9634  -13.7393    4.4522 S   0  0  0  0  0  0  0  0  0  0  0  0
   86.3246  -13.0976    4.9218 C   0  0  0  0  0  0  0  0  0  0  0  0
   85.1291  -13.9320    4.4251 C   0  0  1  0  0  0  0  0  0  0  0  0
   83.8549  -13.3361    4.6983 O   0  0  0  0  0  0  0  0  0  0  0  0
   83.8017  -13.4879    2.4169 C   0  0  2  0  0  0  0  0  0  0  0  0
   83.2810  -14.1196    1.2790 O   0  0  0  0  0  0  0  0  0  0  0  0
   85.1704  -14.0245    2.8913 C   0  0  2  0  0  0  0  0  0  0  0  0
   85.3335  -15.3546    2.4623 O   0  0  0  0  0  0  0  0  0  0  0  0
   82.9478  -13.6438    3.6787 C   0  0  2  0  0  0  0  0  0  0  0  0
   81.8439  -12.7151    3.6708 N   0  0  0  0  0  0  0  0  0  0  0  0
   80.9148  -12.5433    4.6484 C   0  0  0  0  0  0  0  0  0  0  0  0
   80.0469  -11.6117    4.3695 N   0  0  0  0  0  0  0  0  0  0  0  0
   80.4228  -11.1350    3.1363 C   0  0  0  0  0  0  0  0  0  0  0  0
   79.9034  -10.1242    2.2938 C   0  0  0  0  0  0  0  0  0  0  0  0
   78.8277   -9.3990    2.6005 N   0  0  0  0  0  0  0  0  0  0  0  0
   80.5246   -9.8898    1.1348 N   0  0  0  0  0  0  0  0  0  0  0  0
   81.6061  -10.6156    0.8601 C   0  0  0  0  0  0  0  0  0  0  0  0
   82.1775  -11.5859    1.5543 N   0  0  0  0  0  0  0  0  0  0  0  0
   81.5478  -11.8026    2.6948 C   0  0  0  0  0  0  0  0  0  0  0  0
   89.2035  -11.7790    5.1832 H   0  0  0  0  0  0  0  0  0  0  0  0
   89.8504  -12.4365    3.6418 H   0  0  0  0  0  0  0  0  0  0  0  0
   88.3323  -11.4762    3.6418 H   0  0  0  0  0  0  0  0  0  0  0  0
   86.2773  -13.0547    6.0199 H   0  0  0  0  0  0  0  0  0  0  0  0
   86.2319  -12.1130    4.4402 H   0  0  0  0  0  0  0  0  0  0  0  0
   85.2216  -14.8965    4.9460 H   0  0  0  0  0  0  0  0  0  0  0  0
   83.8513  -12.4523    2.0495 H   0  0  0  0  0  0  0  0  0  0  0  0
   82.6764  -14.8530    1.5562 H   0  0  0  0  0  0  0  0  0  0  0  0
   86.0166  -13.4535    2.4817 H   0  0  0  0  0  0  0  0  0  0  0  0
   85.4064  -15.9490    3.2506 H   0  0  0  0  0  0  0  0  0  0  0  0
   82.4931  -14.6400    3.7825 H   0  0  0  0  0  0  0  0  0  0  0  0
   80.8974  -13.1299    5.5787 H   0  0  0  0  0  0  0  0  0  0  0  0
   78.4921   -8.6748    1.9494 H   0  0  0  0  0  0  0  0  0  0  0  0
   78.3322   -9.5628    3.4884 H   0  0  0  0  0  0  0  0  0  0  0  0
   82.1012  -10.3706   -0.0912 H   0  0  0  0  0  0  0  0  0  0  0  0
  1  2  1  0
  2  3  1  0
  4  3  1  0
  4  5  1  0
  4  8  1  0
  5 10  1  0
  6  7  1  0
  6  8  1  0
  6 10  1  0
  8  9  1  0
 10 11  1  0
 11 12  1  0
 11 20  1  0
 12 13  2  0
 13 14  1  0
 14 15  2  0
 14 20  1  0
 15 16  1  0
 15 17  1  0
 17 18  2  0
 18 19  1  0
 19 20  2  0
  1 21  1  0
  1 22  1  0
  1 23  1  0
  3 24  1  0
  3 25  1  0
  4 26  1  1
  6 27  1  6
  7 28  1  0
  8 29  1  6
  9 30  1  0
 10 31  1  1
 12 32  1  0
 16 33  1  0
 16 34  1  0
 18 35  1  0
M  END
>  <filename_input>  (2) 
8C5M_MTA_docked.sdf

>  <pdb_id>  (2) 
8C5M_MTA

>  <pose_rank>  (2) 
1

>  <num_atoms_heavy>  (2) 
20

>  <num_torsions>  (2) 
3

>  <pose>  (2) 
[85.12905569862326, -13.93202726738329, 4.425103046696149, 3.811302206116233, -1.8716102485155481, -0.7223195093218201, 4.224556948012673, 0.24867347889956257, 3.4414404806802312]

>  <energy>  (2) 
-595.8262278702925

>  <inter_energy>  (2) 
-650.9776269001451

>  <intra_energy>  (2) 
53.33841830224207

>  <rmsd>  (2) 
2.59488

>  <sdf_rank>  (2) 
0

$$$$

     RDKit          3D

 35 37  0  0  0  0  0  0  0  0999 V2000
   89.3921  -14.2671    4.9401 C   0  0  0  0  0  0  0  0  0  0  0  0
   88.1868  -14.7161    3.6340 S   0  0  0  0  0  0  0  0  0  0  0  0
   86.8182  -13.5549    3.9446 C   0  0  0  0  0  0  0  0  0  0  0  0
   85.4367  -14.2086    4.1353 C   0  0  1  0  0  0  0  0  0  0  0  0
   84.3436  -13.2864    4.0467 O   0  0  0  0  0  0  0  0  0  0  0  0
   83.8421  -14.7437    2.3569 C   0  0  2  0  0  0  0  0  0  0  0  0
   83.0267  -15.7815    1.8843 O   0  0  0  0  0  0  0  0  0  0  0  0
   85.1758  -15.1992    2.9892 C   0  0  2  0  0  0  0  0  0  0  0  0
   85.0486  -16.5158    3.4688 O   0  0  0  0  0  0  0  0  0  0  0  0
   83.2255  -13.9133    3.4864 C   0  0  2  0  0  0  0  0  0  0  0  0
   82.2963  -12.9420    2.9625 N   0  0  0  0  0  0  0  0  0  0  0  0
   82.1787  -12.5398    1.6692 C   0  0  0  0  0  0  0  0  0  0  0  0
   81.2316  -11.6620    1.4918 N   0  0  0  0  0  0  0  0  0  0  0  0
   80.6864  -11.4722    2.7392 C   0  0  0  0  0  0  0  0  0  0  0  0
   79.6289  -10.6628    3.2164 C   0  0  0  0  0  0  0  0  0  0  0  0
   78.9206   -9.8494    2.4330 N   0  0  0  0  0  0  0  0  0  0  0  0
   79.3301  -10.7196    4.5171 N   0  0  0  0  0  0  0  0  0  0  0  0
   80.0407  -11.5522    5.2745 C   0  0  0  0  0  0  0  0  0  0  0  0
   81.0496  -12.3443    4.9511 N   0  0  0  0  0  0  0  0  0  0  0  0
   81.3296  -12.2723    3.6624 C   0  0  0  0  0  0  0  0  0  0  0  0
   88.9407  -14.4353    5.9291 H   0  0  0  0  0  0  0  0  0  0  0  0
   90.2929  -14.8900    4.8376 H   0  0  0  0  0  0  0  0  0  0  0  0
   89.6659  -13.2067    4.8376 H   0  0  0  0  0  0  0  0  0  0  0  0
   87.0544  -12.9857    4.8558 H   0  0  0  0  0  0  0  0  0  0  0  0
   86.7385  -12.9277    3.0445 H   0  0  0  0  0  0  0  0  0  0  0  0
   85.4750  -14.6639    5.1359 H   0  0  0  0  0  0  0  0  0  0  0  0
   83.9813  -14.1763    1.4248 H   0  0  0  0  0  0  0  0  0  0  0  0
   82.6404  -16.2731    2.6518 H   0  0  0  0  0  0  0  0  0  0  0  0
   86.0084  -15.2030    2.2703 H   0  0  0  0  0  0  0  0  0  0  0  0
   85.0494  -16.5080    4.4587 H   0  0  0  0  0  0  0  0  0  0  0  0
   82.6500  -14.5108    4.2087 H   0  0  0  0  0  0  0  0  0  0  0  0
   82.8171  -12.9162    0.8563 H   0  0  0  0  0  0  0  0  0  0  0  0
   78.1603   -9.2816    2.8335 H   0  0  0  0  0  0  0  0  0  0  0  0
   79.1337   -9.7887    1.4271 H   0  0  0  0  0  0  0  0  0  0  0  0
   79.7429  -11.5869    6.3329 H   0  0  0  0  0  0  0  0  0  0  0  0
  1  2  1  0
  2  3  1  0
  4  3  1  0
  4  5  1  0
  4  8  1  0
  5 10  1  0
  6  7  1  0
  6  8  1  0
  6 10  1  0
  8  9  1  0
 10 11  1  0
 11 12  1  0
 11 20  1  0
 12 13  2  0
 13 14  1  0
 14 15  2  0
 14 20  1  0
 15 16  1  0
 15 17  1  0
 17 18  2  0
 18 19  1  0
 19 20  2  0
  1 21  1  0
  1 22  1  0
  1 23  1  0
  3 24  1  0
  3 25  1  0
  4 26  1  1
  6 27  1  6
  7 28  1  0
  8 29  1  6
  9 30  1  0
 10 31  1  1
 12 32  1  0
 16 33  1  0
 16 34  1  0
 18 35  1  0
M  END
>  <filename_input>  (3) 
8C5M_MTA_docked.sdf

>  <pdb_id>  (3) 
8C5M_MTA

>  <pose_rank>  (3) 
2

>  <num_atoms_heavy>  (3) 
20

>  <num_torsions>  (3) 
3

>  <pose>  (3) 
[85.43672414928882, -14.208647490743653, 4.135271194072674, -2.222693720443234, 1.3419639591301713, 0.010754091840883854, 7.05465183738746, 0.4046567393416279, -1.2908470327803205]

>  <energy>  (3) 
-696.0105439738223

>  <inter_energy>  (3) 
-689.5116798785356

>  <intra_energy>  (3) 
1.9472454745686976

>  <rmsd>  (3) 
2.96852

>  <sdf_rank>  (3) 
0

$$$$

     RDKit          3D

 35 37  0  0  0  0  0  0  0  0999 V2000
   86.3499  -18.4053    3.6115 C   0  0  0  0  0  0  0  0  0  0  0  0
   85.3409  -17.2194    4.5788 S   0  0  0  0  0  0  0  0  0  0  0  0
   83.9839  -16.8268    3.4289 C   0  0  0  0  0  0  0  0  0  0  0  0
   84.2154  -15.5885    2.5429 C   0  0  1  0  0  0  0  0  0  0  0  0
   83.0185  -14.8599    2.2436 O   0  0  0  0  0  0  0  0  0  0  0  0
   84.2640  -13.2634    3.3069 C   0  0  2  0  0  0  0  0  0  0  0  0
   85.0228  -12.0885    3.2118 O   0  0  0  0  0  0  0  0  0  0  0  0
   85.0850  -14.5719    3.3000 C   0  0  2  0  0  0  0  0  0  0  0  0
   86.3121  -14.3590    2.6452 O   0  0  0  0  0  0  0  0  0  0  0  0
   83.2965  -13.4926    2.1420 C   0  0  2  0  0  0  0  0  0  0  0  0
   82.0976  -12.7072    2.3069 N   0  0  0  0  0  0  0  0  0  0  0  0
   81.2699  -12.2650    1.3232 C   0  0  0  0  0  0  0  0  0  0  0  0
   80.2490  -11.5945    1.7784 N   0  0  0  0  0  0  0  0  0  0  0  0
   80.4061  -11.5936    3.1438 C   0  0  0  0  0  0  0  0  0  0  0  0
   79.6408  -11.0502    4.2023 C   0  0  0  0  0  0  0  0  0  0  0  0
   78.5174  -10.3584    4.0112 N   0  0  0  0  0  0  0  0  0  0  0  0
   80.0698  -11.2420    5.4526 N   0  0  0  0  0  0  0  0  0  0  0  0
   81.1845  -11.9507    5.6173 C   0  0  0  0  0  0  0  0  0  0  0  0
   81.9858  -12.4962    4.7170 N   0  0  0  0  0  0  0  0  0  0  0  0
   81.5448  -12.2941    3.4886 C   0  0  0  0  0  0  0  0  0  0  0  0
   86.9064  -19.0593    4.2990 H   0  0  0  0  0  0  0  0  0  0  0  0
   85.6904  -19.0162    2.9776 H   0  0  0  0  0  0  0  0  0  0  0  0
   87.0585  -17.8521    2.9776 H   0  0  0  0  0  0  0  0  0  0  0  0
   83.8344  -17.6945    2.7694 H   0  0  0  0  0  0  0  0  0  0  0  0
   83.1092  -16.5963    4.0548 H   0  0  0  0  0  0  0  0  0  0  0  0
   84.6667  -15.9815    1.6200 H   0  0  0  0  0  0  0  0  0  0  0  0
   83.7563  -13.0809    4.2655 H   0  0  0  0  0  0  0  0  0  0  0  0
   85.2358  -11.7588    4.1207 H   0  0  0  0  0  0  0  0  0  0  0  0
   85.3240  -14.9297    4.3123 H   0  0  0  0  0  0  0  0  0  0  0  0
   87.0278  -14.2348    3.3178 H   0  0  0  0  0  0  0  0  0  0  0  0
   83.7072  -13.2002    1.1643 H   0  0  0  0  0  0  0  0  0  0  0  0
   81.4438  -12.4536    0.2535 H   0  0  0  0  0  0  0  0  0  0  0  0
   77.9990   -9.9847    4.8190 H   0  0  0  0  0  0  0  0  0  0  0  0
   78.1679  -10.1974    3.0558 H   0  0  0  0  0  0  0  0  0  0  0  0
   81.4860  -12.1069    6.6636 H   0  0  0  0  0  0  0  0  0  0  0  0
  1  2  1  0
  2  3  1  0
  4  3  1  0
  4  5  1  0
  4  8  1  0
  5 10  1  0
  6  7  1  0
  6  8  1  0
  6 10  1  0
  8  9  1  0
 10 11  1  0
 11 12  1  0
 11 20  1  0
 12 13  2  0
 13 14  1  0
 14 15  2  0
 14 20  1  0
 15 16  1  0
 15 17  1  0
 17 18  2  0
 18 19  1  0
 19 20  2  0
  1 21  1  0
  1 22  1  0
  1 23  1  0
  3 24  1  0
  3 25  1  0
  4 26  1  6
  6 27  1  1
  7 28  1  0
  8 29  1  1
  9 30  1  0
 10 31  1  6
 12 32  1  0
 16 33  1  0
 16 34  1  0
 18 35  1  0
M  END
>  <filename_input>  (4) 
8C5M_MTA_docked.sdf

>  <pdb_id>  (4) 
8C5M_MTA

>  <pose_rank>  (4) 
3

>  <num_atoms_heavy>  (4) 
20

>  <num_torsions>  (4) 
3

>  <pose>  (4) 
[84.21543005212159, -15.588452120318067, 2.542912244631114, 0.861148025576122, 5.634317099660725, 1.5095034711921402, -8.836612538741814, -5.552625219745784, -0.7183629022290196]

>  <energy>  (4) 
-635.7013076595877

>  <inter_energy>  (4) 
-634.7540829256228

>  <intra_energy>  (4) 
25.94644032644547

>  <rmsd>  (4) 
1.99576

>  <sdf_rank>  (4) 
0

$$$$

     RDKit          3D

 35 37  0  0  0  0  0  0  0  0999 V2000
   78.4609  -10.3302    6.1405 C   0  0  0  0  0  0  0  0  0  0  0  0
   79.9054  -11.2183    6.8369 S   0  0  0  0  0  0  0  0  0  0  0  0
   80.3165  -12.4007    5.5137 C   0  0  0  0  0  0  0  0  0  0  0  0
   81.4278  -11.9433    4.5504 C   0  0  1  0  0  0  0  0  0  0  0  0
   82.5281  -12.8569    4.4618 O   0  0  0  0  0  0  0  0  0  0  0  0
   81.8132  -12.8002    2.2901 C   0  0  2  0  0  0  0  0  0  0  0  0
   82.0400  -12.3733    0.9743 O   0  0  0  0  0  0  0  0  0  0  0  0
   80.8752  -11.8932    3.1170 C   0  0  2  0  0  0  0  0  0  0  0  0
   80.9048  -10.5843    2.6017 O   0  0  0  0  0  0  0  0  0  0  0  0
   83.0658  -12.8436    3.1703 C   0  0  2  0  0  0  0  0  0  0  0  0
   83.8318  -14.0395    2.9165 N   0  0  0  0  0  0  0  0  0  0  0  0
   83.3437  -15.2830    2.6637 C   0  0  0  0  0  0  0  0  0  0  0  0
   84.2796  -16.1648    2.4503 N   0  0  0  0  0  0  0  0  0  0  0  0
   85.4576  -15.4660    2.5651 C   0  0  0  0  0  0  0  0  0  0  0  0
   86.8163  -15.8387    2.4378 C   0  0  0  0  0  0  0  0  0  0  0  0
   87.2101  -17.0831    2.1665 N   0  0  0  0  0  0  0  0  0  0  0  0
   87.7463  -14.8937    2.5993 N   0  0  0  0  0  0  0  0  0  0  0  0
   87.3265  -13.6560    2.8524 C   0  0  0  0  0  0  0  0  0  0  0  0
   86.0979  -13.1895    3.0036 N   0  0  0  0  0  0  0  0  0  0  0  0
   85.1946  -14.1391    2.8414 C   0  0  0  0  0  0  0  0  0  0  0  0
   77.8363   -9.9461    6.9605 H   0  0  0  0  0  0  0  0  0  0  0  0
   78.8102   -9.4906    5.5215 H   0  0  0  0  0  0  0  0  0  0  0  0
   77.8693  -11.0208    5.5215 H   0  0  0  0  0  0  0  0  0  0  0  0
   80.6397  -13.3406    5.9850 H   0  0  0  0  0  0  0  0  0  0  0  0
   79.4071  -12.5062    4.9039 H   0  0  0  0  0  0  0  0  0  0  0  0
   81.7644  -10.9741    4.9469 H   0  0  0  0  0  0  0  0  0  0  0  0
   81.3846  -13.7939    2.0929 H   0  0  0  0  0  0  0  0  0  0  0  0
   82.5045  -11.4991    0.9864 H   0  0  0  0  0  0  0  0  0  0  0  0
   79.8263  -12.2230    3.0840 H   0  0  0  0  0  0  0  0  0  0  0  0
   80.9195   -9.9356    3.3494 H   0  0  0  0  0  0  0  0  0  0  0  0
   83.7583  -12.0077    2.9924 H   0  0  0  0  0  0  0  0  0  0  0  0
   82.2699  -15.5204    2.6417 H   0  0  0  0  0  0  0  0  0  0  0  0
   88.2138  -17.2993    2.0847 H   0  0  0  0  0  0  0  0  0  0  0  0
   86.5107  -17.8283    2.0387 H   0  0  0  0  0  0  0  0  0  0  0  0
   88.1245  -12.9054    2.9510 H   0  0  0  0  0  0  0  0  0  0  0  0
  1  2  1  0
  2  3  1  0
  4  3  1  0
  4  5  1  0
  4  8  1  0
  5 10  1  0
  6  7  1  0
  6  8  1  0
  6 10  1  0
  8  9  1  0
 10 11  1  0
 11 12  1  0
 11 20  1  0
 12 13  2  0
 13 14  1  0
 14 15  2  0
 14 20  1  0
 15 16  1  0
 15 17  1  0
 17 18  2  0
 18 19  1  0
 19 20  2  0
  1 21  1  0
  1 22  1  0
  1 23  1  0
  3 24  1  0
  3 25  1  0
  4 26  1  1
  6 27  1  6
  7 28  1  0
  8 29  1  1
  9 30  1  0
 10 31  1  1
 12 32  1  0
 16 33  1  0
 16 34  1  0
 18 35  1  0
M  END
>  <filename_input>  (5) 
8C5M_MTA_docked.sdf

>  <pdb_id>  (5) 
8C5M_MTA

>  <pose_rank>  (5) 
4

>  <num_atoms_heavy>  (5) 
20

>  <num_torsions>  (5) 
3

>  <pose>  (5) 
[81.42784940063628, -11.943324231297195, 4.550429719112783, 1.139068377478068, 2.188441256505033, -2.1061457003379536, -5.906949498131722, -0.8312676728147289, -3.7043893185828995]

>  <energy>  (5) 
-531.0088113941082

>  <inter_energy>  (5) 
-528.224481364024

>  <intra_energy>  (5) 
0.0

>  <rmsd>  (5) 
6.73866

>  <sdf_rank>  (5) 
0

$$$$

     RDKit          3D

 35 37  0  0  0  0  0  0  0  0999 V2000
   78.6105  -10.0954    6.4954 C   0  0  0  0  0  0  0  0  0  0  0  0
   79.4594  -10.7657    7.9753 S   0  0  0  0  0  0  0  0  0  0  0  0
   81.2173  -10.5181    7.5673 C   0  0  0  0  0  0  0  0  0  0  0  0
   81.9265  -11.7435    6.9609 C   0  0  1  0  0  0  0  0  0  0  0  0
   81.4499  -12.1011    5.6578 O   0  0  0  0  0  0  0  0  0  0  0  0
   83.6595  -11.6920    5.2330 C   0  0  2  0  0  0  0  0  0  0  0  0
   84.9273  -12.2072    4.9290 O   0  0  0  0  0  0  0  0  0  0  0  0
   83.4108  -11.4156    6.7323 C   0  0  2  0  0  0  0  0  0  0  0  0
   84.2436  -12.2396    7.5115 O   0  0  0  0  0  0  0  0  0  0  0  0
   82.4940  -12.6231    4.8868 C   0  0  2  0  0  0  0  0  0  0  0  0
   82.1819  -12.5555    3.4799 N   0  0  0  0  0  0  0  0  0  0  0  0
   82.6404  -13.3808    2.5016 C   0  0  0  0  0  0  0  0  0  0  0  0
   82.1669  -13.0875    1.3231 N   0  0  0  0  0  0  0  0  0  0  0  0
   81.3439  -12.0065    1.5310 C   0  0  0  0  0  0  0  0  0  0  0  0
   80.5354  -11.2300    0.6681 C   0  0  0  0  0  0  0  0  0  0  0  0
   80.4485  -11.4479   -0.6442 N   0  0  0  0  0  0  0  0  0  0  0  0
   79.8269  -10.2301    1.1994 N   0  0  0  0  0  0  0  0  0  0  0  0
   79.9177  -10.0443    2.5144 C   0  0  0  0  0  0  0  0  0  0  0  0
   80.6391  -10.6896    3.4162 N   0  0  0  0  0  0  0  0  0  0  0  0
   81.3323  -11.6725    2.8706 C   0  0  0  0  0  0  0  0  0  0  0  0
   77.7835   -9.4425    6.8113 H   0  0  0  0  0  0  0  0  0  0  0  0
   79.3258   -9.5159    5.8933 H   0  0  0  0  0  0  0  0  0  0  0  0
   78.2127  -10.9257    5.8933 H   0  0  0  0  0  0  0  0  0  0  0  0
   81.2861   -9.6922    6.8440 H   0  0  0  0  0  0  0  0  0  0  0  0
   81.7264  -10.3100    8.5199 H   0  0  0  0  0  0  0  0  0  0  0  0
   81.7412  -12.5594    7.6750 H   0  0  0  0  0  0  0  0  0  0  0  0
   83.6800  -10.7750    4.6257 H   0  0  0  0  0  0  0  0  0  0  0  0
   85.4133  -12.4047    5.7686 H   0  0  0  0  0  0  0  0  0  0  0  0
   83.6365  -10.3773    7.0169 H   0  0  0  0  0  0  0  0  0  0  0  0
   84.0715  -12.0693    8.4714 H   0  0  0  0  0  0  0  0  0  0  0  0
   82.7019  -13.6838    5.0910 H   0  0  0  0  0  0  0  0  0  0  0  0
   83.3389  -14.2104    2.6856 H   0  0  0  0  0  0  0  0  0  0  0  0
   79.8435  -10.8512   -1.2264 H   0  0  0  0  0  0  0  0  0  0  0  0
   80.9864  -12.2128   -1.0760 H   0  0  0  0  0  0  0  0  0  0  0  0
   79.2972   -9.2281    2.9127 H   0  0  0  0  0  0  0  0  0  0  0  0
  1  2  1  0
  2  3  1  0
  4  3  1  0
  4  5  1  0
  4  8  1  0
  5 10  1  0
  6  7  1  0
  6  8  1  0
  6 10  1  0
  8  9  1  0
 10 11  1  0
 11 12  1  0
 11 20  1  0
 12 13  2  0
 13 14  1  0
 14 15  2  0
 14 20  1  0
 15 16  1  0
 15 17  1  0
 17 18  2  0
 18 19  1  0
 19 20  2  0
  1 21  1  0
  1 22  1  0
  1 23  1  0
  3 24  1  0
  3 25  1  0
  4 26  1  1
  6 27  1  6
  7 28  1  0
  8 29  1  6
  9 30  1  0
 10 31  1  1
 12 32  1  0
 16 33  1  0
 16 34  1  0
 18 35  1  0
M  END
>  <filename_input>  (6) 
8C5M_MTA_docked.sdf

>  <pdb_id>  (6) 
8C5M_MTA

>  <pose_rank>  (6) 
5

>  <num_atoms_heavy>  (6) 
20

>  <num_torsions>  (6) 
3

>  <pose>  (6) 
[81.92653787643343, -11.743486685518963, 6.960939726406737, 3.7478777848877485, 1.4659670540333536, 1.0651220358091615, 2.6924703190349706, -1.8209898979565708, -0.7778902411039755]

>  <energy>  (6) 
-525.2470681038224

>  <inter_energy>  (6) 
-557.4983292677398

>  <intra_energy>  (6) 
16.15333926499458

>  <rmsd>  (6) 
5.171

>  <sdf_rank>  (6) 
0

$$$$

     RDKit          3D

 35 37  0  0  0  0  0  0  0  0999 V2000
   85.2174   -7.1608   10.0338 C   0  0  0  0  0  0  0  0  0  0  0  0
   85.5648   -8.9283    9.6937 S   0  0  0  0  0  0  0  0  0  0  0  0
   83.9054   -9.5979    9.3537 C   0  0  0  0  0  0  0  0  0  0  0  0
   83.8848  -10.9790    8.6722 C   0  0  1  0  0  0  0  0  0  0  0  0
   82.8138  -11.1451    7.7349 O   0  0  0  0  0  0  0  0  0  0  0  0
   84.6391  -11.4698    6.3958 C   0  0  2  0  0  0  0  0  0  0  0  0
   85.4365  -12.3645    5.6687 O   0  0  0  0  0  0  0  0  0  0  0  0
   85.1510  -11.1476    7.8172 C   0  0  2  0  0  0  0  0  0  0  0  0
   85.9486  -12.2077    8.2862 O   0  0  0  0  0  0  0  0  0  0  0  0
   83.2185  -11.9674    6.6779 C   0  0  2  0  0  0  0  0  0  0  0  0
   82.3705  -11.7834    5.5254 N   0  0  0  0  0  0  0  0  0  0  0  0
   82.7279  -11.9136    4.2201 C   0  0  0  0  0  0  0  0  0  0  0  0
   81.7385  -11.7069    3.3971 N   0  0  0  0  0  0  0  0  0  0  0  0
   80.6607  -11.4258    4.2024 C   0  0  0  0  0  0  0  0  0  0  0  0
   79.3057  -11.1245    3.9296 C   0  0  0  0  0  0  0  0  0  0  0  0
   78.8095  -11.0441    2.6949 N   0  0  0  0  0  0  0  0  0  0  0  0
   78.4878  -10.9100    4.9636 N   0  0  0  0  0  0  0  0  0  0  0  0
   79.0039  -11.0132    6.1863 C   0  0  0  0  0  0  0  0  0  0  0  0
   80.2434  -11.2760    6.5663 N   0  0  0  0  0  0  0  0  0  0  0  0
   81.0354  -11.4833    5.5299 C   0  0  0  0  0  0  0  0  0  0  0  0
   85.1850   -6.9962   11.1210 H   0  0  0  0  0  0  0  0  0  0  0  0
   86.0106   -6.5396    9.5924 H   0  0  0  0  0  0  0  0  0  0  0  0
   84.2480   -6.8862    9.5924 H   0  0  0  0  0  0  0  0  0  0  0  0
   83.3693   -9.6822   10.3106 H   0  0  0  0  0  0  0  0  0  0  0  0
   83.4327   -8.9004    8.6465 H   0  0  0  0  0  0  0  0  0  0  0  0
   83.7884  -11.7000    9.4973 H   0  0  0  0  0  0  0  0  0  0  0  0
   84.6707  -10.6011    5.7217 H   0  0  0  0  0  0  0  0  0  0  0  0
   85.9464  -12.9366    6.2955 H   0  0  0  0  0  0  0  0  0  0  0  0
   85.7756  -10.2428    7.8498 H   0  0  0  0  0  0  0  0  0  0  0  0
   85.9486  -12.2077    9.2762 H   0  0  0  0  0  0  0  0  0  0  0  0
   83.1663  -13.0408    6.9128 H   0  0  0  0  0  0  0  0  0  0  0  0
   83.7469  -12.1672    3.8924 H   0  0  0  0  0  0  0  0  0  0  0  0
   77.8139  -10.8211    2.5535 H   0  0  0  0  0  0  0  0  0  0  0  0
   79.4217  -11.2049    1.8823 H   0  0  0  0  0  0  0  0  0  0  0  0
   78.2892  -10.8555    7.0075 H   0  0  0  0  0  0  0  0  0  0  0  0
  1  2  1  0
  2  3  1  0
  4  3  1  0
  4  5  1  0
  4  8  1  0
  5 10  1  0
  6  7  1  0
  6  8  1  0
  6 10  1  0
  8  9  1  0
 10 11  1  0
 11 12  1  0
 11 20  1  0
 12 13  2  0
 13 14  1  0
 14 15  2  0
 14 20  1  0
 15 16  1  0
 15 17  1  0
 17 18  2  0
 18 19  1  0
 19 20  2  0
  1 21  1  0
  1 22  1  0
  1 23  1  0
  3 24  1  0
  3 25  1  0
  4 26  1  1
  6 27  1  6
  7 28  1  0
  8 29  1  6
  9 30  1  0
 10 31  1  1
 12 32  1  0
 16 33  1  0
 16 34  1  0
 18 35  1  0
M  END
>  <filename_input>  (7) 
8C5M_MTA_docked.sdf

>  <pdb_id>  (7) 
8C5M_MTA

>  <pose_rank>  (7) 
6

>  <num_atoms_heavy>  (7) 
20

>  <num_torsions>  (7) 
3

>  <pose>  (7) 
[83.88476250540674, -10.978972556279924, 8.672164238770492, 4.089514512130401, 0.3236043025832737, 0.5372715387824127, 1.6701666656543102, 0.7692558749193812, -2.5102893360931366]

>  <energy>  (7) 
-335.00967505734167

>  <inter_energy>  (7) 
-356.0169856046466

>  <intra_energy>  (7) 
21.339502527683496

>  <rmsd>  (7) 
5.84646

>  <sdf_rank>  (7) 
0

$$$$

     RDKit          3D

 35 37  0  0  0  0  0  0  0  0999 V2000
   80.0875  -10.5377    0.9255 C   0  0  0  0  0  0  0  0  0  0  0  0
   80.5098  -10.9516    2.6607 S   0  0  0  0  0  0  0  0  0  0  0  0
   81.7194  -12.2988    2.4614 C   0  0  0  0  0  0  0  0  0  0  0  0
   82.2244  -12.9236    3.7755 C   0  0  1  0  0  0  0  0  0  0  0  0
   83.4041  -13.7218    3.6201 O   0  0  0  0  0  0  0  0  0  0  0  0
   84.1241  -12.1373    5.1039 C   0  0  2  0  0  0  0  0  0  0  0  0
   84.4923  -11.8193    6.4186 O   0  0  0  0  0  0  0  0  0  0  0  0
   82.6595  -11.8081    4.7394 C   0  0  2  0  0  0  0  0  0  0  0  0
   81.8706  -11.8008    5.9044 O   0  0  0  0  0  0  0  0  0  0  0  0
   84.2061  -13.6280    4.7625 C   0  0  2  0  0  0  0  0  0  0  0  0
   85.5654  -14.0156    4.4736 N   0  0  0  0  0  0  0  0  0  0  0  0
   86.6751  -13.2366    4.5740 C   0  0  0  0  0  0  0  0  0  0  0  0
   87.7723  -13.8693    4.2664 N   0  0  0  0  0  0  0  0  0  0  0  0
   87.3685  -15.1434    3.9456 C   0  0  0  0  0  0  0  0  0  0  0  0
   88.0690  -16.3040    3.5413 C   0  0  0  0  0  0  0  0  0  0  0  0
   89.3914  -16.3388    3.3763 N   0  0  0  0  0  0  0  0  0  0  0  0
   87.3659  -17.4168    3.3141 N   0  0  0  0  0  0  0  0  0  0  0  0
   86.0494  -17.3604    3.5027 C   0  0  0  0  0  0  0  0  0  0  0  0
   85.2854  -16.3431    3.8651 N   0  0  0  0  0  0  0  0  0  0  0  0
   85.9991  -15.2535    4.0833 C   0  0  0  0  0  0  0  0  0  0  0  0
   79.3021   -9.7677    0.9130 H   0  0  0  0  0  0  0  0  0  0  0  0
   80.9823  -10.1571    0.4112 H   0  0  0  0  0  0  0  0  0  0  0  0
   79.7249  -11.4399    0.4112 H   0  0  0  0  0  0  0  0  0  0  0  0
   81.2485  -13.0940    1.8649 H   0  0  0  0  0  0  0  0  0  0  0  0
   82.5997  -11.8507    1.9773 H   0  0  0  0  0  0  0  0  0  0  0  0
   81.3877  -13.5406    4.1350 H   0  0  0  0  0  0  0  0  0  0  0  0
   84.8515  -11.5233    4.5525 H   0  0  0  0  0  0  0  0  0  0  0  0
   83.9165  -12.3167    7.0520 H   0  0  0  0  0  0  0  0  0  0  0  0
   82.5488  -10.8169    4.2756 H   0  0  0  0  0  0  0  0  0  0  0  0
   82.4583  -11.8063    6.7011 H   0  0  0  0  0  0  0  0  0  0  0  0
   83.8808  -14.2860    5.5818 H   0  0  0  0  0  0  0  0  0  0  0  0
   86.6496  -12.1812    4.8830 H   0  0  0  0  0  0  0  0  0  0  0  0
   89.8506  -17.2119    3.0801 H   0  0  0  0  0  0  0  0  0  0  0  0
   89.9539  -15.4926    3.5450 H   0  0  0  0  0  0  0  0  0  0  0  0
   85.5140  -18.3058    3.3305 H   0  0  0  0  0  0  0  0  0  0  0  0
  1  2  1  0
  2  3  1  0
  4  3  1  0
  4  5  1  0
  4  8  1  0
  5 10  1  0
  6  7  1  0
  6  8  1  0
  6 10  1  0
  8  9  1  0
 10 11  1  0
 11 12  1  0
 11 20  1  0
 12 13  2  0
 13 14  1  0
 14 15  2  0
 14 20  1  0
 15 16  1  0
 15 17  1  0
 17 18  2  0
 18 19  1  0
 19 20  2  0
  1 21  1  0
  1 22  1  0
  1 23  1  0
  3 24  1  0
  3 25  1  0
  4 26  1  1
  6 27  1  6
  7 28  1  0
  8 29  1  6
  9 30  1  0
 10 31  1  1
 12 32  1  0
 16 33  1  0
 16 34  1  0
 18 35  1  0
M  END
>  <filename_input>  (8) 
8C5M_MTA_docked.sdf

>  <pdb_id>  (8) 
8C5M_MTA

>  <pose_rank>  (8) 
7

>  <num_atoms_heavy>  (8) 
20

>  <num_torsions>  (8) 
3

>  <pose>  (8) 
[82.22438596048256, -12.923561866429171, 3.775504824225551, -1.5748565643716568, -2.3552580005561032, -1.5826877545870068, 1.1240189533468605, 0.4152574585269854, 4.092555106920876]

>  <energy>  (8) 
-491.7643319772148

>  <inter_energy>  (8) 
-495.94437667992304

>  <intra_energy>  (8) 
7.336621769495657

>  <rmsd>  (8) 
7.04538

>  <sdf_rank>  (8) 
0

$$$$

     RDKit          3D

 35 37  0  0  0  0  0  0  0  0999 V2000
   80.8179  -11.3037    7.8601 C   0  0  0  0  0  0  0  0  0  0  0  0
   79.4900  -11.9650    6.7832 S   0  0  0  0  0  0  0  0  0  0  0  0
   79.2820  -10.6374    5.5535 C   0  0  0  0  0  0  0  0  0  0  0  0
   80.3720  -10.5760    4.4671 C   0  0  1  0  0  0  0  0  0  0  0  0
   81.3981  -11.5643    4.6213 O   0  0  0  0  0  0  0  0  0  0  0  0
   80.5779  -12.0852    2.5509 C   0  0  2  0  0  0  0  0  0  0  0  0
   80.7664  -12.0820    1.1618 O   0  0  0  0  0  0  0  0  0  0  0  0
   79.7511  -10.9011    3.0991 C   0  0  2  0  0  0  0  0  0  0  0  0
   79.8476   -9.8071    2.2195 O   0  0  0  0  0  0  0  0  0  0  0  0
   81.8679  -11.9739    3.3688 C   0  0  2  0  0  0  0  0  0  0  0  0
   82.5322  -13.2514    3.4581 N   0  0  0  0  0  0  0  0  0  0  0  0
   82.0367  -14.4576    3.0737 C   0  0  0  0  0  0  0  0  0  0  0  0
   82.8778  -15.4365    3.2560 N   0  0  0  0  0  0  0  0  0  0  0  0
   83.9983  -14.8459    3.7899 C   0  0  0  0  0  0  0  0  0  0  0  0
   85.2541  -15.3532    4.1983 C   0  0  0  0  0  0  0  0  0  0  0  0
   85.5769  -16.6449    4.1315 N   0  0  0  0  0  0  0  0  0  0  0  0
   86.1567  -14.4914    4.6744 N   0  0  0  0  0  0  0  0  0  0  0  0
   85.8161  -13.2052    4.7147 C   0  0  0  0  0  0  0  0  0  0  0  0
   84.6817  -12.6154    4.3752 N   0  0  0  0  0  0  0  0  0  0  0  0
   83.8033  -13.4843    3.9087 C   0  0  0  0  0  0  0  0  0  0  0  0
   80.5381  -11.4430    8.9148 H   0  0  0  0  0  0  0  0  0  0  0  0
   81.7565  -11.8397    7.6559 H   0  0  0  0  0  0  0  0  0  0  0  0
   80.9559  -10.2317    7.6559 H   0  0  0  0  0  0  0  0  0  0  0  0
   78.3122  -10.7833    5.0553 H   0  0  0  0  0  0  0  0  0  0  0  0
   79.3508   -9.6910    6.1101 H   0  0  0  0  0  0  0  0  0  0  0  0
   80.7971   -9.5649    4.5499 H   0  0  0  0  0  0  0  0  0  0  0  0
   80.0696  -13.0536    2.6682 H   0  0  0  0  0  0  0  0  0  0  0  0
   81.7356  -12.0658    0.9603 H   0  0  0  0  0  0  0  0  0  0  0  0
   78.6810  -11.1372    3.1947 H   0  0  0  0  0  0  0  0  0  0  0  0
   79.9215   -8.9693    2.7417 H   0  0  0  0  0  0  0  0  0  0  0  0
   82.6083  -11.2875    2.9324 H   0  0  0  0  0  0  0  0  0  0  0  0
   81.0297  -14.5935    2.6523 H   0  0  0  0  0  0  0  0  0  0  0  0
   86.5068  -16.9601    4.4428 H   0  0  0  0  0  0  0  0  0  0  0  0
   84.8966  -17.3277    3.7685 H   0  0  0  0  0  0  0  0  0  0  0  0
   86.5987  -12.5283    5.0879 H   0  0  0  0  0  0  0  0  0  0  0  0
  1  2  1  0
  2  3  1  0
  4  3  1  0
  4  5  1  0
  4  8  1  0
  5 10  1  0
  6  7  1  0
  6  8  1  0
  6 10  1  0
  8  9  1  0
 10 11  1  0
 11 12  1  0
 11 20  1  0
 12 13  2  0
 13 14  1  0
 14 15  2  0
 14 20  1  0
 15 16  1  0
 15 17  1  0
 17 18  2  0
 18 19  1  0
 19 20  2  0
  1 21  1  0
  1 22  1  0
  1 23  1  0
  3 24  1  0
  3 25  1  0
  4 26  1  6
  6 27  1  1
  7 28  1  0
  8 29  1  1
  9 30  1  0
 10 31  1  6
 12 32  1  0
 16 33  1  0
 16 34  1  0
 18 35  1  0
M  END
>  <filename_input>  (9) 
8C5M_MTA_docked.sdf

>  <pdb_id>  (9) 
8C5M_MTA

>  <pose_rank>  (9) 
8

>  <num_atoms_heavy>  (9) 
20

>  <num_torsions>  (9) 
3

>  <pose>  (9) 
[80.37201085426231, -10.576025801971829, 4.4671005497686185, 1.1824701673203901, 1.7843357764196521, -2.4006978650102333, 0.8709666370142466, -3.0159575145063346, 2.237378348873506]

>  <energy>  (9) 
-563.5970142349623

>  <inter_energy>  (9) 
-533.2866377367782

>  <intra_energy>  (9) 
5.383970739913469

>  <rmsd>  (9) 
6.43235

>  <sdf_rank>  (9) 
0

$$$$

     RDKit          3D

 35 37  0  0  0  0  0  0  0  0999 V2000
   84.9514  -10.6708    6.7552 C   0  0  0  0  0  0  0  0  0  0  0  0
   83.6311  -11.9416    6.7086 S   0  0  0  0  0  0  0  0  0  0  0  0
   82.8743  -11.6640    5.0752 C   0  0  0  0  0  0  0  0  0  0  0  0
   83.5950  -12.3452    3.8966 C   0  0  1  0  0  0  0  0  0  0  0  0
   84.6849  -13.1863    4.2937 O   0  0  0  0  0  0  0  0  0  0  0  0
   83.3350  -14.6799    3.2087 C   0  0  2  0  0  0  0  0  0  0  0  0
   83.1110  -15.4762    2.0769 O   0  0  0  0  0  0  0  0  0  0  0  0
   82.6263  -13.3074    3.1906 C   0  0  2  0  0  0  0  0  0  0  0  0
   82.3900  -12.9126    1.8609 O   0  0  0  0  0  0  0  0  0  0  0  0
   84.7966  -14.2768    3.4245 C   0  0  2  0  0  0  0  0  0  0  0  0
   85.5417  -15.3507    4.0351 N   0  0  0  0  0  0  0  0  0  0  0  0
   86.0452  -15.3800    5.2976 C   0  0  0  0  0  0  0  0  0  0  0  0
   86.6560  -16.4969    5.5776 N   0  0  0  0  0  0  0  0  0  0  0  0
   86.5496  -17.2548    4.4359 C   0  0  0  0  0  0  0  0  0  0  0  0
   86.9900  -18.5558    4.0975 C   0  0  0  0  0  0  0  0  0  0  0  0
   87.6723  -19.3370    4.9350 N   0  0  0  0  0  0  0  0  0  0  0  0
   86.7064  -19.0191    2.8772 N   0  0  0  0  0  0  0  0  0  0  0  0
   86.0094  -18.2264    2.0662 C   0  0  0  0  0  0  0  0  0  0  0  0
   85.5548  -16.9994    2.2610 N   0  0  0  0  0  0  0  0  0  0  0  0
   85.8466  -16.5601    3.4718 C   0  0  0  0  0  0  0  0  0  0  0  0
   85.1966  -10.4349    7.8012 H   0  0  0  0  0  0  0  0  0  0  0  0
   85.8479  -11.0546    6.2461 H   0  0  0  0  0  0  0  0  0  0  0  0
   84.6022   -9.7604    6.2461 H   0  0  0  0  0  0  0  0  0  0  0  0
   81.8424  -12.0436    5.1088 H   0  0  0  0  0  0  0  0  0  0  0  0
   82.9374  -10.5818    4.8884 H   0  0  0  0  0  0  0  0  0  0  0  0
   83.9575  -11.5169    3.2701 H   0  0  0  0  0  0  0  0  0  0  0  0
   82.9484  -15.3517    3.9892 H   0  0  0  0  0  0  0  0  0  0  0  0
   82.8543  -16.3890    2.3612 H   0  0  0  0  0  0  0  0  0  0  0  0
   81.6484  -13.3267    3.6938 H   0  0  0  0  0  0  0  0  0  0  0  0
   81.8816  -12.0632    1.8542 H   0  0  0  0  0  0  0  0  0  0  0  0
   85.3309  -14.0413    2.4923 H   0  0  0  0  0  0  0  0  0  0  0  0
   85.9473  -14.5470    6.0093 H   0  0  0  0  0  0  0  0  0  0  0  0
   87.9688  -20.2771    4.6363 H   0  0  0  0  0  0  0  0  0  0  0  0
   87.9029  -19.0005    5.8807 H   0  0  0  0  0  0  0  0  0  0  0  0
   85.7752  -18.6583    1.0820 H   0  0  0  0  0  0  0  0  0  0  0  0
  1  2  1  0
  2  3  1  0
  4  3  1  0
  4  5  1  0
  4  8  1  0
  5 10  1  0
  6  7  1  0
  6  8  1  0
  6 10  1  0
  8  9  1  0
 10 11  1  0
 11 12  1  0
 11 20  1  0
 12 13  2  0
 13 14  1  0
 14 15  2  0
 14 20  1  0
 15 16  1  0
 15 17  1  0
 17 18  2  0
 18 19  1  0
 19 20  2  0
  1 21  1  0
  1 22  1  0
  1 23  1  0
  3 24  1  0
  3 25  1  0
  4 26  1  6
  6 27  1  1
  7 28  1  0
  8 29  1  1
  9 30  1  0
 10 31  1  6
 12 32  1  0
 16 33  1  0
 16 34  1  0
 18 35  1  0
M  END
>  <filename_input>  (10) 
8C5M_MTA_docked.sdf

>  <pdb_id>  (10) 
8C5M_MTA

>  <pose_rank>  (10) 
9

>  <num_atoms_heavy>  (10) 
20

>  <num_torsions>  (10) 
3

>  <pose>  (10) 
[83.59496374788958, -12.345165081873544, 3.8965947058458883, 0.8012532448922013, 0.9190688859820145, -2.9342607779863363, -0.8928744372706559, 3.3802539756366774, 2.354232794386597]

>  <energy>  (10) 
-517.3897925047456

>  <inter_energy>  (10) 
-528.4929228924349

>  <intra_energy>  (10) 
18.744069839287494

>  <rmsd>  (10) 
7.13879

>  <sdf_rank>  (10) 
0

$$$$

     RDKit          3D

 35 37  0  0  0  0  0  0  0  0999 V2000
   84.8825  -10.5803    8.3945 C   0  0  0  0  0  0  0  0  0  0  0  0
   85.5222  -11.2540    6.8143 S   0  0  0  0  0  0  0  0  0  0  0  0
   84.0254  -11.9569    6.0507 C   0  0  0  0  0  0  0  0  0  0  0  0
   84.0726  -12.0848    4.5165 C   0  0  1  0  0  0  0  0  0  0  0  0
   84.9880  -13.0824    4.0475 O   0  0  0  0  0  0  0  0  0  0  0  0
   83.0108  -13.8451    3.1877 C   0  0  2  0  0  0  0  0  0  0  0  0
   82.1991  -14.0364    2.0608 O   0  0  0  0  0  0  0  0  0  0  0  0
   82.7074  -12.5668    4.0001 C   0  0  2  0  0  0  0  0  0  0  0  0
   82.1065  -11.6058    3.1663 O   0  0  0  0  0  0  0  0  0  0  0  0
   84.5009  -13.6749    2.8776 C   0  0  2  0  0  0  0  0  0  0  0  0
   85.1275  -14.9536    2.6457 N   0  0  0  0  0  0  0  0  0  0  0  0
   85.3890  -15.5279    1.4415 C   0  0  0  0  0  0  0  0  0  0  0  0
   85.9855  -16.6822    1.5454 N   0  0  0  0  0  0  0  0  0  0  0  0
   86.1311  -16.8852    2.8970 C   0  0  0  0  0  0  0  0  0  0  0  0
   86.7027  -17.9312    3.6590 C   0  0  0  0  0  0  0  0  0  0  0  0
   87.2423  -19.0215    3.1138 N   0  0  0  0  0  0  0  0  0  0  0  0
   86.6979  -17.8160    4.9897 N   0  0  0  0  0  0  0  0  0  0  0  0
   86.1688  -16.7101    5.5084 C   0  0  0  0  0  0  0  0  0  0  0  0
   85.6005  -15.6773    4.9081 N   0  0  0  0  0  0  0  0  0  0  0  0
   85.6143  -15.8115    3.5943 C   0  0  0  0  0  0  0  0  0  0  0  0
   85.3702  -11.0939    9.2362 H   0  0  0  0  0  0  0  0  0  0  0  0
   85.0980   -9.5029    8.4478 H   0  0  0  0  0  0  0  0  0  0  0  0
   83.7954  -10.7399    8.4478 H   0  0  0  0  0  0  0  0  0  0  0  0
   83.8675  -12.9609    6.4716 H   0  0  0  0  0  0  0  0  0  0  0  0
   83.2088  -11.2546    6.2744 H   0  0  0  0  0  0  0  0  0  0  0  0
   84.3733  -11.0890    4.1589 H   0  0  0  0  0  0  0  0  0  0  0  0
   82.7835  -14.7685    3.7406 H   0  0  0  0  0  0  0  0  0  0  0  0
   81.2778  -14.2535    2.3508 H   0  0  0  0  0  0  0  0  0  0  0  0
   82.0093  -12.7462    4.8310 H   0  0  0  0  0  0  0  0  0  0  0  0
   81.6723  -10.9115    3.7226 H   0  0  0  0  0  0  0  0  0  0  0  0
   84.6975  -13.0827    1.9717 H   0  0  0  0  0  0  0  0  0  0  0  0
   85.1246  -15.0660    0.4788 H   0  0  0  0  0  0  0  0  0  0  0  0
   87.6451  -19.7532    3.7166 H   0  0  0  0  0  0  0  0  0  0  0  0
   87.2565  -19.1322    2.0899 H   0  0  0  0  0  0  0  0  0  0  0  0
   86.2106  -16.6450    6.6057 H   0  0  0  0  0  0  0  0  0  0  0  0
  1  2  1  0
  2  3  1  0
  4  3  1  0
  4  5  1  0
  4  8  1  0
  5 10  1  0
  6  7  1  0
  6  8  1  0
  6 10  1  0
  8  9  1  0
 10 11  1  0
 11 12  1  0
 11 20  1  0
 12 13  2  0
 13 14  1  0
 14 15  2  0
 14 20  1  0
 15 16  1  0
 15 17  1  0
 17 18  2  0
 18 19  1  0
 19 20  2  0
  1 21  1  0
  1 22  1  0
  1 23  1  0
  3 24  1  0
  3 25  1  0
  4 26  1  6
  6 27  1  1
  7 28  1  0
  8 29  1  1
  9 30  1  0
 10 31  1  6
 12 32  1  0
 16 33  1  0
 16 34  1  0
 18 35  1  0
M  END
>  <filename_input>  (11) 
8C5M_MTA_docked.sdf

>  <pdb_id>  (11) 
8C5M_MTA

>  <pose_rank>  (11) 
10

>  <num_atoms_heavy>  (11) 
20

>  <num_torsions>  (11) 
3

>  <pose>  (11) 
[84.07256723242017, -12.084837760481005, 4.51652349616359, -0.17831266289787215, -1.2532803356347475, 2.4094149832660894, 9.03560655567504, 4.503876171151569, -2.6591831786449895]

>  <energy>  (11) 
-546.0353176998165

>  <inter_energy>  (11) 
-541.0964924048503

>  <intra_energy>  (11) 
14.898417887334535

>  <rmsd>  (11) 
7.0555

>  <sdf_rank>  (11) 
0

$$$$

     RDKit          3D

 35 37  0  0  0  0  0  0  0  0999 V2000
   90.5092  -19.8201    6.1746 C   0  0  0  0  0  0  0  0  0  0  0  0
   89.2055  -18.6416    6.6959 S   0  0  0  0  0  0  0  0  0  0  0  0
   87.7299  -19.2832    5.8421 C   0  0  0  0  0  0  0  0  0  0  0  0
   86.7280  -18.2113    5.3737 C   0  0  1  0  0  0  0  0  0  0  0  0
   86.9430  -16.9226    5.9621 O   0  0  0  0  0  0  0  0  0  0  0  0
   87.1722  -16.4462    3.7370 C   0  0  2  0  0  0  0  0  0  0  0  0
   86.6358  -15.8502    2.5870 O   0  0  0  0  0  0  0  0  0  0  0  0
   86.9099  -17.9628    3.8678 C   0  0  2  0  0  0  0  0  0  0  0  0
   85.7514  -18.3081    3.1478 O   0  0  0  0  0  0  0  0  0  0  0  0
   86.6027  -15.9133    5.0551 C   0  0  2  0  0  0  0  0  0  0  0  0
   87.2245  -14.6624    5.4157 N   0  0  0  0  0  0  0  0  0  0  0  0
   87.5476  -13.6406    4.5793 C   0  0  0  0  0  0  0  0  0  0  0  0
   88.0808  -12.6244    5.1973 N   0  0  0  0  0  0  0  0  0  0  0  0
   88.1111  -12.9913    6.5216 C   0  0  0  0  0  0  0  0  0  0  0  0
   88.5559  -12.3361    7.6938 C   0  0  0  0  0  0  0  0  0  0  0  0
   89.0927  -11.1159    7.6898 N   0  0  0  0  0  0  0  0  0  0  0  0
   88.4302  -12.9765    8.8593 N   0  0  0  0  0  0  0  0  0  0  0  0
   87.8755  -14.1864    8.8383 C   0  0  0  0  0  0  0  0  0  0  0  0
   87.4345  -14.9017    7.8166 N   0  0  0  0  0  0  0  0  0  0  0  0
   87.5688  -14.2517    6.6749 C   0  0  0  0  0  0  0  0  0  0  0  0
   90.9888  -20.2536    7.0646 H   0  0  0  0  0  0  0  0  0  0  0  0
   90.0583  -20.6232    5.5732 H   0  0  0  0  0  0  0  0  0  0  0  0
   91.2629  -19.2907    5.5732 H   0  0  0  0  0  0  0  0  0  0  0  0
   88.0653  -19.8455    4.9582 H   0  0  0  0  0  0  0  0  0  0  0  0
   87.1950  -19.9015    6.5780 H   0  0  0  0  0  0  0  0  0  0  0  0
   85.7406  -18.6036    5.6585 H   0  0  0  0  0  0  0  0  0  0  0  0
   88.2359  -16.2059    3.5931 H   0  0  0  0  0  0  0  0  0  0  0  0
   85.9974  -15.1408    2.8502 H   0  0  0  0  0  0  0  0  0  0  0  0
   87.7295  -18.5732    3.4607 H   0  0  0  0  0  0  0  0  0  0  0  0
   85.0219  -18.5255    3.7808 H   0  0  0  0  0  0  0  0  0  0  0  0
   85.5234  -15.7045    5.0161 H   0  0  0  0  0  0  0  0  0  0  0  0
   87.3767  -13.6685    3.4930 H   0  0  0  0  0  0  0  0  0  0  0  0
   89.4000  -10.6855    8.5737 H   0  0  0  0  0  0  0  0  0  0  0  0
   89.2001  -10.6035    6.8028 H   0  0  0  0  0  0  0  0  0  0  0  0
   87.7670  -14.6654    9.8226 H   0  0  0  0  0  0  0  0  0  0  0  0
  1  2  1  0
  2  3  1  0
  4  3  1  0
  4  5  1  0
  4  8  1  0
  5 10  1  0
  6  7  1  0
  6  8  1  0
  6 10  1  0
  8  9  1  0
 10 11  1  0
 11 12  1  0
 11 20  1  0
 12 13  2  0
 13 14  1  0
 14 15  2  0
 14 20  1  0
 15 16  1  0
 15 17  1  0
 17 18  2  0
 18 19  1  0
 19 20  2  0
  1 21  1  0
  1 22  1  0
  1 23  1  0
  3 24  1  0
  3 25  1  0
  4 26  1  6
  6 27  1  1
  7 28  1  0
  8 29  1  6
  9 30  1  0
 10 31  1  6
 12 32  1  0
 16 33  1  0
 16 34  1  0
 18 35  1  0
M  END
>  <filename_input>  (12) 
8C5M_MTA_docked.sdf

>  <pdb_id>  (12) 
8C5M_MTA

>  <pose_rank>  (12) 
11

>  <num_atoms_heavy>  (12) 
20

>  <num_torsions>  (12) 
3

>  <pose>  (12) 
[86.72800695491773, -18.211267551776423, 5.373704749205629, -0.6417357688611475, 1.6507119776413512, -0.42717674225264035, -4.541044886617692, 3.0374956995500138, -1.645836333305605]

>  <energy>  (12) 
-280.432087255268

>  <inter_energy>  (12) 
-285.5859303332884

>  <intra_energy>  (12) 
22.424840876159664

>  <rmsd>  (12) 
7.3077

>  <sdf_rank>  (12) 
0

$$$$

     RDKit          3D

 35 37  0  0  0  0  0  0  0  0999 V2000
   80.2175  -10.2166    7.6875 C   0  0  0  0  0  0  0  0  0  0  0  0
   79.2489  -11.7288    7.3197 S   0  0  0  0  0  0  0  0  0  0  0  0
   80.3815  -12.6717    6.2491 C   0  0  0  0  0  0  0  0  0  0  0  0
   81.0704  -11.8509    5.1428 C   0  0  1  0  0  0  0  0  0  0  0  0
   82.4778  -12.0962    5.0324 O   0  0  0  0  0  0  0  0  0  0  0  0
   81.7521  -12.6873    2.9457 C   0  0  2  0  0  0  0  0  0  0  0  0
   81.6816  -12.3799    1.5798 O   0  0  0  0  0  0  0  0  0  0  0  0
   80.5155  -12.2705    3.7722 C   0  0  2  0  0  0  0  0  0  0  0  0
   79.8578  -11.2014    3.1364 O   0  0  0  0  0  0  0  0  0  0  0  0
   82.8856  -11.9848    3.6988 C   0  0  2  0  0  0  0  0  0  0  0  0
   84.1421  -12.6604    3.4839 N   0  0  0  0  0  0  0  0  0  0  0  0
   85.3858  -12.1662    3.7235 C   0  0  0  0  0  0  0  0  0  0  0  0
   86.3343  -13.0182    3.4525 N   0  0  0  0  0  0  0  0  0  0  0  0
   85.6828  -14.1446    3.0099 C   0  0  0  0  0  0  0  0  0  0  0  0
   86.1357  -15.4122    2.5745 C   0  0  0  0  0  0  0  0  0  0  0  0
   87.4252  -15.7432    2.5060 N   0  0  0  0  0  0  0  0  0  0  0  0
   85.2222  -16.3177    2.2145 N   0  0  0  0  0  0  0  0  0  0  0  0
   83.9411  -15.9683    2.3084 C   0  0  0  0  0  0  0  0  0  0  0  0
   83.3980  -14.8229    2.6869 N   0  0  0  0  0  0  0  0  0  0  0  0
   84.3175  -13.9419    3.0370 C   0  0  0  0  0  0  0  0  0  0  0  0
   80.2991  -10.0893    8.7770 H   0  0  0  0  0  0  0  0  0  0  0  0
   81.2237  -10.3109    7.2530 H   0  0  0  0  0  0  0  0  0  0  0  0
   79.7111   -9.3421    7.2530 H   0  0  0  0  0  0  0  0  0  0  0  0
   81.1643  -13.1113    6.8847 H   0  0  0  0  0  0  0  0  0  0  0  0
   79.7629  -13.4213    5.7339 H   0  0  0  0  0  0  0  0  0  0  0  0
   80.8836  -10.8008    5.4119 H   0  0  0  0  0  0  0  0  0  0  0  0
   81.8795  -13.7782    2.8853 H   0  0  0  0  0  0  0  0  0  0  0  0
   81.4618  -11.4211    1.4682 H   0  0  0  0  0  0  0  0  0  0  0  0
   79.7783  -13.0807    3.8733 H   0  0  0  0  0  0  0  0  0  0  0  0
   79.4826  -10.5914    3.8199 H   0  0  0  0  0  0  0  0  0  0  0  0
   83.0514  -10.9463    3.3763 H   0  0  0  0  0  0  0  0  0  0  0  0
   85.5723  -11.1520    4.1065 H   0  0  0  0  0  0  0  0  0  0  0  0
   87.6995  -16.6815    2.1814 H   0  0  0  0  0  0  0  0  0  0  0  0
   88.1473  -15.0608    2.7778 H   0  0  0  0  0  0  0  0  0  0  0  0
   83.2233  -16.7531    2.0279 H   0  0  0  0  0  0  0  0  0  0  0  0
  1  2  1  0
  2  3  1  0
  4  3  1  0
  4  5  1  0
  4  8  1  0
  5 10  1  0
  6  7  1  0
  6  8  1  0
  6 10  1  0
  8  9  1  0
 10 11  1  0
 11 12  1  0
 11 20  1  0
 12 13  2  0
 13 14  1  0
 14 15  2  0
 14 20  1  0
 15 16  1  0
 15 17  1  0
 17 18  2  0
 18 19  1  0
 19 20  2  0
  1 21  1  0
  1 22  1  0
  1 23  1  0
  3 24  1  0
  3 25  1  0
  4 26  1  1
  6 27  1  6
  7 28  1  0
  8 29  1  1
  9 30  1  0
 10 31  1  6
 12 32  1  0
 16 33  1  0
 16 34  1  0
 18 35  1  0
M  END
>  <filename_input>  (13) 
8C5M_MTA_docked.sdf

>  <pdb_id>  (13) 
8C5M_MTA

>  <pose_rank>  (13) 
12

>  <num_atoms_heavy>  (13) 
20

>  <num_torsions>  (13) 
3

>  <pose>  (13) 
[81.07041595287302, -11.850851278959343, 5.142795865964091, 0.41514497700086384, 2.0517858754157507, -2.01767275510271, -2.389952231275103, 5.626363466368913, 0.1124315753380717]

>  <energy>  (13) 
-400.3915757399041

>  <inter_energy>  (13) 
-437.8088224234993

>  <intra_energy>  (13) 
33.75743795115117

>  <rmsd>  (13) 
6.51245

>  <sdf_rank>  (13) 
0

$$$$

     RDKit          3D

 35 37  0  0  0  0  0  0  0  0999 V2000
   77.6984  -10.3089    9.2935 C   0  0  0  0  0  0  0  0  0  0  0  0
   78.7948  -11.7763    9.3643 S   0  0  0  0  0  0  0  0  0  0  0  0
   80.2916  -11.1918    8.5066 C   0  0  0  0  0  0  0  0  0  0  0  0
   80.8155  -12.1235    7.3977 C   0  0  1  0  0  0  0  0  0  0  0  0
   80.1397  -11.9670    6.1440 O   0  0  0  0  0  0  0  0  0  0  0  0
   82.2957  -11.4778    5.5581 C   0  0  2  0  0  0  0  0  0  0  0  0
   83.4669  -11.8724    4.8966 O   0  0  0  0  0  0  0  0  0  0  0  0
   82.2755  -11.7665    7.0755 C   0  0  2  0  0  0  0  0  0  0  0  0
   83.1411  -12.8368    7.3667 O   0  0  0  0  0  0  0  0  0  0  0  0
   81.0258  -12.1914    5.0849 C   0  0  2  0  0  0  0  0  0  0  0  0
   80.5310  -11.6048    3.8633 N   0  0  0  0  0  0  0  0  0  0  0  0
   79.5075  -10.7186    3.7395 C   0  0  0  0  0  0  0  0  0  0  0  0
   79.3013  -10.3460    2.5076 N   0  0  0  0  0  0  0  0  0  0  0  0
   80.2443  -11.0217    1.7705 C   0  0  0  0  0  0  0  0  0  0  0  0
   80.5531  -11.0466    0.3902 C   0  0  0  0  0  0  0  0  0  0  0  0
   79.8839  -10.3403   -0.5210 N   0  0  0  0  0  0  0  0  0  0  0  0
   81.5655  -11.8182   -0.0147 N   0  0  0  0  0  0  0  0  0  0  0  0
   82.2285  -12.4999    0.9168 C   0  0  0  0  0  0  0  0  0  0  0  0
   82.0311  -12.5669    2.2231 N   0  0  0  0  0  0  0  0  0  0  0  0
   81.0259  -11.7986    2.6022 C   0  0  0  0  0  0  0  0  0  0  0  0
   77.4551   -9.9833   10.3156 H   0  0  0  0  0  0  0  0  0  0  0  0
   78.2106   -9.4939    8.7611 H   0  0  0  0  0  0  0  0  0  0  0  0
   76.7716  -10.5691    8.7611 H   0  0  0  0  0  0  0  0  0  0  0  0
   80.0649  -10.2158    8.0526 H   0  0  0  0  0  0  0  0  0  0  0  0
   81.0836  -11.1473    9.2687 H   0  0  0  0  0  0  0  0  0  0  0  0
   80.6673  -13.1406    7.7896 H   0  0  0  0  0  0  0  0  0  0  0  0
   82.3034  -10.4026    5.3264 H   0  0  0  0  0  0  0  0  0  0  0  0
   84.1601  -12.1059    5.5637 H   0  0  0  0  0  0  0  0  0  0  0  0
   82.6168  -10.9106    7.6762 H   0  0  0  0  0  0  0  0  0  0  0  0
   83.2226  -12.9377    8.3482 H   0  0  0  0  0  0  0  0  0  0  0  0
   81.1777  -13.2571    4.8587 H   0  0  0  0  0  0  0  0  0  0  0  0
   78.9146  -10.3536    4.5912 H   0  0  0  0  0  0  0  0  0  0  0  0
   80.1515  -10.3958   -1.5140 H   0  0  0  0  0  0  0  0  0  0  0  0
   79.0991   -9.7390   -0.2319 H   0  0  0  0  0  0  0  0  0  0  0  0
   83.0707  -13.1004    0.5424 H   0  0  0  0  0  0  0  0  0  0  0  0
  1  2  1  0
  2  3  1  0
  4  3  1  0
  4  5  1  0
  4  8  1  0
  5 10  1  0
  6  7  1  0
  6  8  1  0
  6 10  1  0
  8  9  1  0
 10 11  1  0
 11 12  1  0
 11 20  1  0
 12 13  2  0
 13 14  1  0
 14 15  2  0
 14 20  1  0
 15 16  1  0
 15 17  1  0
 17 18  2  0
 18 19  1  0
 19 20  2  0
  1 21  1  0
  1 22  1  0
  1 23  1  0
  3 24  1  0
  3 25  1  0
  4 26  1  1
  6 27  1  1
  7 28  1  0
  8 29  1  1
  9 30  1  0
 10 31  1  6
 12 32  1  0
 16 33  1  0
 16 34  1  0
 18 35  1  0
M  END
>  <filename_input>  (14) 
8C5M_MTA_docked.sdf

>  <pdb_id>  (14) 
8C5M_MTA

>  <pose_rank>  (14) 
13

>  <num_atoms_heavy>  (14) 
20

>  <num_torsions>  (14) 
3

>  <pose>  (14) 
[80.81552970806906, -12.123533561578052, 7.397732839058348, 4.156713453176634, 1.203345038700259, 1.3575541225791332, -0.7119072866150106, -1.5564368086412237, -1.368615684921689]

>  <energy>  (14) 
-523.1329046499841

>  <inter_energy>  (14) 
-501.4818731439265

>  <intra_energy>  (14) 
7.344346666578364

>  <rmsd>  (14) 
5.73354

>  <sdf_rank>  (14) 
0

$$$$

     RDKit          3D

 35 37  0  0  0  0  0  0  0  0999 V2000
   82.2946  -10.8039   10.0661 C   0  0  0  0  0  0  0  0  0  0  0  0
   82.3072   -9.3991    8.8886 S   0  0  0  0  0  0  0  0  0  0  0  0
   80.5323   -9.0547    8.6669 C   0  0  0  0  0  0  0  0  0  0  0  0
   80.0860   -8.8359    7.2091 C   0  0  1  0  0  0  0  0  0  0  0  0
   80.8621   -9.5661    6.2511 O   0  0  0  0  0  0  0  0  0  0  0  0
   78.7669  -10.3955    5.8603 C   0  0  2  0  0  0  0  0  0  0  0  0
   77.6470  -10.4490    5.0188 O   0  0  0  0  0  0  0  0  0  0  0  0
   78.6616   -9.3822    7.0215 C   0  0  2  0  0  0  0  0  0  0  0  0
   77.7608   -8.3576    6.6774 O   0  0  0  0  0  0  0  0  0  0  0  0
   80.0606   -9.9515    5.1712 C   0  0  2  0  0  0  0  0  0  0  0  0
   80.6595  -11.0461    4.4471 N   0  0  0  0  0  0  0  0  0  0  0  0
   81.0905  -12.2275    4.9635 C   0  0  0  0  0  0  0  0  0  0  0  0
   81.5690  -13.0353    4.0594 N   0  0  0  0  0  0  0  0  0  0  0  0
   81.4462  -12.3520    2.8731 C   0  0  0  0  0  0  0  0  0  0  0  0
   81.7693  -12.6774    1.5348 C   0  0  0  0  0  0  0  0  0  0  0  0
   82.3237  -13.8361    1.1782 N   0  0  0  0  0  0  0  0  0  0  0  0
   81.5045  -11.7754    0.5860 N   0  0  0  0  0  0  0  0  0  0  0  0
   80.9352  -10.6337    0.9659 C   0  0  0  0  0  0  0  0  0  0  0  0
   80.5981  -10.2127    2.1739 N   0  0  0  0  0  0  0  0  0  0  0  0
   80.8691  -11.1179    3.0966 C   0  0  0  0  0  0  0  0  0  0  0  0
   82.2980  -10.4188   11.0964 H   0  0  0  0  0  0  0  0  0  0  0  0
   81.3910  -11.4100    9.9042 H   0  0  0  0  0  0  0  0  0  0  0  0
   83.1872  -11.4261    9.9042 H   0  0  0  0  0  0  0  0  0  0  0  0
   79.9667   -9.9067    9.0721 H   0  0  0  0  0  0  0  0  0  0  0  0
   80.3360   -8.1085    9.1925 H   0  0  0  0  0  0  0  0  0  0  0  0
   80.1885   -7.7535    7.0415 H   0  0  0  0  0  0  0  0  0  0  0  0
   78.7925  -11.4401    6.2039 H   0  0  0  0  0  0  0  0  0  0  0  0
   76.8237  -10.4884    5.5671 H   0  0  0  0  0  0  0  0  0  0  0  0
   78.2851   -9.8365    7.9499 H   0  0  0  0  0  0  0  0  0  0  0  0
   77.3988   -7.9459    7.5017 H   0  0  0  0  0  0  0  0  0  0  0  0
   79.9126   -9.1537    4.4285 H   0  0  0  0  0  0  0  0  0  0  0  0
   81.0406  -12.4761    6.0339 H   0  0  0  0  0  0  0  0  0  0  0  0
   82.5384  -14.0211    0.1880 H   0  0  0  0  0  0  0  0  0  0  0  0
   82.5374  -14.5463    1.8929 H   0  0  0  0  0  0  0  0  0  0  0  0
   80.7103   -9.9319    0.1493 H   0  0  0  0  0  0  0  0  0  0  0  0
  1  2  1  0
  2  3  1  0
  4  3  1  0
  4  5  1  0
  4  8  1  0
  5 10  1  0
  6  7  1  0
  6  8  1  0
  6 10  1  0
  8  9  1  0
 10 11  1  0
 11 12  1  0
 11 20  1  0
 12 13  2  0
 13 14  1  0
 14 15  2  0
 14 20  1  0
 15 16  1  0
 15 17  1  0
 17 18  2  0
 18 19  1  0
 19 20  2  0
  1 21  1  0
  1 22  1  0
  1 23  1  0
  3 24  1  0
  3 25  1  0
  4 26  1  6
  6 27  1  1
  7 28  1  0
  8 29  1  1
  9 30  1  0
 10 31  1  6
 12 32  1  0
 16 33  1  0
 16 34  1  0
 18 35  1  0
M  END
>  <filename_input>  (15) 
8C5M_MTA_docked.sdf

>  <pdb_id>  (15) 
8C5M_MTA

>  <pose_rank>  (15) 
14

>  <num_atoms_heavy>  (15) 
20

>  <num_torsions>  (15) 
3

>  <pose>  (15) 
[80.08604701190353, -8.83585594343121, 7.209065633783663, 0.34142476067870015, -1.4111793116582714, 2.230797275182887, 6.2690158243187994, 3.8233629749076354, 4.830311253359745]

>  <energy>  (15) 
-509.3003142714993

>  <inter_energy>  (15) 
-493.0431069931472

>  <intra_energy>  (15) 
0.0

>  <rmsd>  (15) 
6.74746

>  <sdf_rank>  (15) 
0

$$$$

     RDKit          3D

 35 37  0  0  0  0  0  0  0  0999 V2000
   75.3671   -8.5162    6.8737 C   0  0  0  0  0  0  0  0  0  0  0  0
   76.7342   -9.6928    6.5467 S   0  0  0  0  0  0  0  0  0  0  0  0
   77.6615   -9.6650    8.1143 C   0  0  0  0  0  0  0  0  0  0  0  0
   78.8637  -10.6255    8.1797 C   0  0  1  0  0  0  0  0  0  0  0  0
   79.1225  -11.3123    6.9491 O   0  0  0  0  0  0  0  0  0  0  0  0
   81.0950  -10.1997    7.2679 C   0  0  2  0  0  0  0  0  0  0  0  0
   82.4537  -10.2613    7.6074 O   0  0  0  0  0  0  0  0  0  0  0  0
   80.1495   -9.8212    8.4293 C   0  0  2  0  0  0  0  0  0  0  0  0
   80.7422  -10.1701    9.6568 O   0  0  0  0  0  0  0  0  0  0  0  0
   80.4961  -11.5272    6.7941 C   0  0  2  0  0  0  0  0  0  0  0  0
   80.8280  -11.7774    5.4126 N   0  0  0  0  0  0  0  0  0  0  0  0
   81.4402  -12.8811    4.9073 C   0  0  0  0  0  0  0  0  0  0  0  0
   81.5894  -12.8344    3.6132 N   0  0  0  0  0  0  0  0  0  0  0  0
   81.0421  -11.6311    3.2367 C   0  0  0  0  0  0  0  0  0  0  0  0
   80.8823  -10.9944    1.9836 C   0  0  0  0  0  0  0  0  0  0  0  0
   81.3029  -11.5253    0.8354 N   0  0  0  0  0  0  0  0  0  0  0  0
   80.2803   -9.8023    1.9553 N   0  0  0  0  0  0  0  0  0  0  0  0
   79.8543   -9.3020    3.1129 C   0  0  0  0  0  0  0  0  0  0  0  0
   79.9530   -9.7911    4.3380 N   0  0  0  0  0  0  0  0  0  0  0  0
   80.5517  -10.9683    4.3441 C   0  0  0  0  0  0  0  0  0  0  0  0
   75.2338   -8.4015    7.9595 H   0  0  0  0  0  0  0  0  0  0  0  0
   75.6094   -7.5397    6.4288 H   0  0  0  0  0  0  0  0  0  0  0  0
   74.4376   -8.9012    6.4288 H   0  0  0  0  0  0  0  0  0  0  0  0
   78.0339   -8.6420    8.2718 H   0  0  0  0  0  0  0  0  0  0  0  0
   76.9590  -10.0002    8.8916 H   0  0  0  0  0  0  0  0  0  0  0  0
   78.6094  -11.3430    8.9738 H   0  0  0  0  0  0  0  0  0  0  0  0
   81.1340   -9.4333    6.4797 H   0  0  0  0  0  0  0  0  0  0  0  0
   82.5477  -10.2656    8.5929 H   0  0  0  0  0  0  0  0  0  0  0  0
   79.9406   -8.7421    8.4738 H   0  0  0  0  0  0  0  0  0  0  0  0
   80.1794   -9.8388   10.4009 H   0  0  0  0  0  0  0  0  0  0  0  0
   80.8684  -12.4012    7.3487 H   0  0  0  0  0  0  0  0  0  0  0  0
   81.7750  -13.7263    5.5265 H   0  0  0  0  0  0  0  0  0  0  0  0
   81.1605  -11.0177   -0.0494 H   0  0  0  0  0  0  0  0  0  0  0  0
   81.7704  -12.4431    0.8332 H   0  0  0  0  0  0  0  0  0  0  0  0
   79.3407   -8.3320    3.0394 H   0  0  0  0  0  0  0  0  0  0  0  0
  1  2  1  0
  2  3  1  0
  4  3  1  0
  4  5  1  0
  4  8  1  0
  5 10  1  0
  6  7  1  0
  6  8  1  0
  6 10  1  0
  8  9  1  0
 10 11  1  0
 11 12  1  0
 11 20  1  0
 12 13  2  0
 13 14  1  0
 14 15  2  0
 14 20  1  0
 15 16  1  0
 15 17  1  0
 17 18  2  0
 18 19  1  0
 19 20  2  0
  1 21  1  0
  1 22  1  0
  1 23  1  0
  3 24  1  0
  3 25  1  0
  4 26  1  1
  6 27  1  6
  7 28  1  0
  8 29  1  1
  9 30  1  0
 10 31  1  1
 12 32  1  0
 16 33  1  0
 16 34  1  0
 18 35  1  0
M  END
>  <filename_input>  (16) 
8C5M_MTA_docked.sdf

>  <pdb_id>  (16) 
8C5M_MTA

>  <pose_rank>  (16) 
15

>  <num_atoms_heavy>  (16) 
20

>  <num_torsions>  (16) 
3

>  <pose>  (16) 
[78.86367464440248, -10.625548405521615, 8.179729110093739, -1.8326335175437458, -1.4231504556731835, -0.685296016231163, 3.221599355074827, 3.3738228767397582, -2.289391205370898]

>  <energy>  (16) 
-422.1865723199625

>  <inter_energy>  (16) 
-435.48747531273773

>  <intra_energy>  (16) 
12.41745016007372

>  <rmsd>  (16) 
6.95727

>  <sdf_rank>  (16) 
0

$$$$

     RDKit          3D

 35 37  0  0  0  0  0  0  0  0999 V2000
   83.0992   -8.7823   11.5342 C   0  0  0  0  0  0  0  0  0  0  0  0
   81.3633   -8.5981   10.9750 S   0  0  0  0  0  0  0  0  0  0  0  0
   81.5203   -8.6965    9.1630 C   0  0  0  0  0  0  0  0  0  0  0  0
   80.1876   -8.7695    8.3943 C   0  0  1  0  0  0  0  0  0  0  0  0
   80.3395   -8.7400    6.9698 O   0  0  0  0  0  0  0  0  0  0  0  0
   79.2838  -10.7466    7.2691 C   0  0  2  0  0  0  0  0  0  0  0  0
   78.1101  -11.5030    7.1450 O   0  0  0  0  0  0  0  0  0  0  0  0
   79.5138  -10.1245    8.6642 C   0  0  2  0  0  0  0  0  0  0  0  0
   78.2799   -9.9616    9.3206 O   0  0  0  0  0  0  0  0  0  0  0  0
   79.3468   -9.5151    6.3608 C   0  0  2  0  0  0  0  0  0  0  0  0
   79.7288   -9.8842    5.0195 N   0  0  0  0  0  0  0  0  0  0  0  0
   79.5437   -9.1536    3.8880 C   0  0  0  0  0  0  0  0  0  0  0  0
   80.0139   -9.7368    2.8214 N   0  0  0  0  0  0  0  0  0  0  0  0
   80.5446  -10.9224    3.2707 C   0  0  0  0  0  0  0  0  0  0  0  0
   81.2052  -11.9912    2.6206 C   0  0  0  0  0  0  0  0  0  0  0  0
   81.4293  -12.0204    1.3068 N   0  0  0  0  0  0  0  0  0  0  0  0
   81.6219  -13.0195    3.3642 N   0  0  0  0  0  0  0  0  0  0  0  0
   81.4013  -12.9581    4.6755 C   0  0  0  0  0  0  0  0  0  0  0  0
   80.7920  -12.0280    5.3923 N   0  0  0  0  0  0  0  0  0  0  0  0
   80.3870  -11.0219    4.6387 C   0  0  0  0  0  0  0  0  0  0  0  0
   83.1319   -8.7858   12.6337 H   0  0  0  0  0  0  0  0  0  0  0  0
   83.5090   -9.7290   11.1522 H   0  0  0  0  0  0  0  0  0  0  0  0
   83.6986   -7.9427   11.1522 H   0  0  0  0  0  0  0  0  0  0  0  0
   82.0635   -7.8040    8.8191 H   0  0  0  0  0  0  0  0  0  0  0  0
   82.0474   -9.6387    8.9520 H   0  0  0  0  0  0  0  0  0  0  0  0
   79.6149   -7.8954    8.7377 H   0  0  0  0  0  0  0  0  0  0  0  0
   80.0289  -11.5147    7.0141 H   0  0  0  0  0  0  0  0  0  0  0  0
   77.7643  -11.7258    8.0455 H   0  0  0  0  0  0  0  0  0  0  0  0
   80.1375  -10.7557    9.3142 H   0  0  0  0  0  0  0  0  0  0  0  0
   78.4223   -9.9804   10.3001 H   0  0  0  0  0  0  0  0  0  0  0  0
   78.3839   -8.9932    6.2591 H   0  0  0  0  0  0  0  0  0  0  0  0
   79.0483   -8.1715    3.8741 H   0  0  0  0  0  0  0  0  0  0  0  0
   81.9156  -12.8245    0.8851 H   0  0  0  0  0  0  0  0  0  0  0  0
   81.1162  -11.2388    0.7134 H   0  0  0  0  0  0  0  0  0  0  0  0
   81.7849  -13.8127    5.2522 H   0  0  0  0  0  0  0  0  0  0  0  0
  1  2  1  0
  2  3  1  0
  4  3  1  0
  4  5  1  0
  4  8  1  0
  5 10  1  0
  6  7  1  0
  6  8  1  0
  6 10  1  0
  8  9  1  0
 10 11  1  0
 11 12  1  0
 11 20  1  0
 12 13  2  0
 13 14  1  0
 14 15  2  0
 14 20  1  0
 15 16  1  0
 15 17  1  0
 17 18  2  0
 18 19  1  0
 19 20  2  0
  1 21  1  0
  1 22  1  0
  1 23  1  0
  3 24  1  0
  3 25  1  0
  4 26  1  1
  6 27  1  6
  7 28  1  0
  8 29  1  1
  9 30  1  0
 10 31  1  6
 12 32  1  0
 16 33  1  0
 16 34  1  0
 18 35  1  0
M  END
>  <filename_input>  (17) 
8C5M_MTA_docked.sdf

>  <pdb_id>  (17) 
8C5M_MTA

>  <pose_rank>  (17) 
16

>  <num_atoms_heavy>  (17) 
20

>  <num_torsions>  (17) 
3

>  <pose>  (17) 
[80.18758249884678, -8.769549250632252, 8.394330538967065, -1.9309738947959927, 1.5077253378944848, -2.236221855323401, -2.435057454758329, 0.06854854785555767, -2.3839623384595443]

>  <energy>  (17) 
-337.3167517395029

>  <inter_energy>  (17) 
-370.21322019083715

>  <intra_energy>  (17) 
31.27413147996806

>  <rmsd>  (17) 
7.49337

>  <sdf_rank>  (17) 
0

$$$$

     RDKit          3D

 35 37  0  0  0  0  0  0  0  0999 V2000
   87.8096  -11.3519    7.0035 C   0  0  0  0  0  0  0  0  0  0  0  0
   87.8062  -12.3110    5.4414 S   0  0  0  0  0  0  0  0  0  0  0  0
   86.0732  -12.8585    5.3188 C   0  0  0  0  0  0  0  0  0  0  0  0
   85.6056  -13.2356    3.9005 C   0  0  1  0  0  0  0  0  0  0  0  0
   86.2768  -14.3780    3.3552 O   0  0  0  0  0  0  0  0  0  0  0  0
   84.0996  -15.0777    3.3260 C   0  0  2  0  0  0  0  0  0  0  0  0
   82.9544  -15.3698    2.5721 O   0  0  0  0  0  0  0  0  0  0  0  0
   84.1296  -13.6624    3.9440 C   0  0  2  0  0  0  0  0  0  0  0  0
   83.3228  -12.7954    3.1842 O   0  0  0  0  0  0  0  0  0  0  0  0
   85.4085  -15.1021    2.5312 C   0  0  2  0  0  0  0  0  0  0  0  0
   85.8752  -16.4551    2.3499 N   0  0  0  0  0  0  0  0  0  0  0  0
   85.4096  -17.3660    1.4546 C   0  0  0  0  0  0  0  0  0  0  0  0
   86.0432  -18.5038    1.5078 N   0  0  0  0  0  0  0  0  0  0  0  0
   86.9864  -18.3383    2.4938 C   0  0  0  0  0  0  0  0  0  0  0  0
   87.9857  -19.1872    3.0248 C   0  0  0  0  0  0  0  0  0  0  0  0
   88.1797  -20.4380    2.6063 N   0  0  0  0  0  0  0  0  0  0  0  0
   88.7700  -18.7073    3.9937 N   0  0  0  0  0  0  0  0  0  0  0  0
   88.5672  -17.4502    4.3816 C   0  0  0  0  0  0  0  0  0  0  0  0
   87.6685  -16.5693    3.9738 N   0  0  0  0  0  0  0  0  0  0  0  0
   86.9032  -17.0636    3.0177 C   0  0  0  0  0  0  0  0  0  0  0  0
   87.8071  -12.0438    7.8586 H   0  0  0  0  0  0  0  0  0  0  0  0
   88.7100  -10.7213    7.0446 H   0  0  0  0  0  0  0  0  0  0  0  0
   86.9137  -10.7149    7.0446 H   0  0  0  0  0  0  0  0  0  0  0  0
   85.9480  -13.7402    5.9644 H   0  0  0  0  0  0  0  0  0  0  0  0
   85.4583  -11.9997    5.6257 H   0  0  0  0  0  0  0  0  0  0  0  0
   85.8079  -12.3434    3.2896 H   0  0  0  0  0  0  0  0  0  0  0  0
   84.0339  -15.8742    4.0818 H   0  0  0  0  0  0  0  0  0  0  0  0
   82.1984  -15.5626    3.1815 H   0  0  0  0  0  0  0  0  0  0  0  0
   83.7394  -13.6385    4.9722 H   0  0  0  0  0  0  0  0  0  0  0  0
   82.7902  -12.2231    3.7917 H   0  0  0  0  0  0  0  0  0  0  0  0
   85.3161  -14.6848    1.5176 H   0  0  0  0  0  0  0  0  0  0  0  0
   84.5834  -17.1637    0.7571 H   0  0  0  0  0  0  0  0  0  0  0  0
   88.9228  -21.0128    3.0283 H   0  0  0  0  0  0  0  0  0  0  0  0
   87.5864  -20.8294    1.8608 H   0  0  0  0  0  0  0  0  0  0  0  0
   89.2528  -17.0880    5.1618 H   0  0  0  0  0  0  0  0  0  0  0  0
  1  2  1  0
  2  3  1  0
  4  3  1  0
  4  5  1  0
  4  8  1  0
  5 10  1  0
  6  7  1  0
  6  8  1  0
  6 10  1  0
  8  9  1  0
 10 11  1  0
 11 12  1  0
 11 20  1  0
 12 13  2  0
 13 14  1  0
 14 15  2  0
 14 20  1  0
 15 16  1  0
 15 17  1  0
 17 18  2  0
 18 19  1  0
 19 20  2  0
  1 21  1  0
  1 22  1  0
  1 23  1  0
  3 24  1  0
  3 25  1  0
  4 26  1  6
  6 27  1  1
  7 28  1  0
  8 29  1  1
  9 30  1  0
 10 31  1  6
 12 32  1  0
 16 33  1  0
 16 34  1  0
 18 35  1  0
M  END
>  <filename_input>  (18) 
8C5M_MTA_docked.sdf

>  <pdb_id>  (18) 
8C5M_MTA

>  <pose_rank>  (18) 
17

>  <num_atoms_heavy>  (18) 
20

>  <num_torsions>  (18) 
3

>  <pose>  (18) 
[85.6055907642483, -13.235557713984731, 3.900521201263398, 0.1243925271395069, -0.8738574058235906, 2.3675206862008746, 8.685885305139763, 4.423721667691666, -2.6198854543469747]

>  <energy>  (18) 
-443.16459265515516

>  <inter_energy>  (18) 
-465.595684014891

>  <intra_energy>  (18) 
22.527117625452572

>  <rmsd>  (18) 
7.80861

>  <sdf_rank>  (18) 
0

$$$$

     RDKit          3D

 35 37  0  0  0  0  0  0  0  0999 V2000
   81.5215  -10.3370    7.3117 C   0  0  0  0  0  0  0  0  0  0  0  0
   82.8538  -11.0155    6.2511 S   0  0  0  0  0  0  0  0  0  0  0  0
   82.0630  -12.4818    5.5146 C   0  0  0  0  0  0  0  0  0  0  0  0
   82.5016  -12.8069    4.0743 C   0  0  1  0  0  0  0  0  0  0  0  0
   83.7440  -13.5162    3.9946 O   0  0  0  0  0  0  0  0  0  0  0  0
   82.3196  -14.9857    2.9738 C   0  0  2  0  0  0  0  0  0  0  0  0
   81.8814  -15.5861    1.7851 O   0  0  0  0  0  0  0  0  0  0  0  0
   81.4875  -13.7686    3.4345 C   0  0  2  0  0  0  0  0  0  0  0  0
   80.8526  -13.1802    2.3252 O   0  0  0  0  0  0  0  0  0  0  0  0
   83.7309  -14.3949    2.9061 C   0  0  2  0  0  0  0  0  0  0  0  0
   84.7282  -15.4257    3.0614 N   0  0  0  0  0  0  0  0  0  0  0  0
   84.8996  -16.5207    2.2739 C   0  0  0  0  0  0  0  0  0  0  0  0
   85.9011  -17.2664    2.6479 N   0  0  0  0  0  0  0  0  0  0  0  0
   86.4273  -16.6284    3.7458 C   0  0  0  0  0  0  0  0  0  0  0  0
   87.5196  -16.9168    4.5973 C   0  0  0  0  0  0  0  0  0  0  0  0
   88.2930  -17.9931    4.4542 N   0  0  0  0  0  0  0  0  0  0  0  0
   87.7840  -16.0660    5.5924 N   0  0  0  0  0  0  0  0  0  0  0  0
   87.0077  -14.9904    5.7032 C   0  0  0  0  0  0  0  0  0  0  0  0
   85.9614  -14.6196    4.9836 N   0  0  0  0  0  0  0  0  0  0  0  0
   85.7164  -15.4740    4.0069 C   0  0  0  0  0  0  0  0  0  0  0  0
   81.7898  -10.4736    8.3697 H   0  0  0  0  0  0  0  0  0  0  0  0
   81.3953   -9.2647    7.1009 H   0  0  0  0  0  0  0  0  0  0  0  0
   80.5801  -10.8654    7.1009 H   0  0  0  0  0  0  0  0  0  0  0  0
   82.2995  -13.3502    6.1470 H   0  0  0  0  0  0  0  0  0  0  0  0
   80.9875  -12.2566    5.4637 H   0  0  0  0  0  0  0  0  0  0  0  0
   82.5847  -11.8295    3.5767 H   0  0  0  0  0  0  0  0  0  0  0  0
   82.2388  -15.8438    3.6573 H   0  0  0  0  0  0  0  0  0  0  0  0
   81.3117  -16.3666    2.0002 H   0  0  0  0  0  0  0  0  0  0  0  0
   80.6940  -14.0403    4.1462 H   0  0  0  0  0  0  0  0  0  0  0  0
   80.1640  -12.5421    2.6392 H   0  0  0  0  0  0  0  0  0  0  0  0
   83.9589  -13.9076    1.9466 H   0  0  0  0  0  0  0  0  0  0  0  0
   84.2592  -16.7533    1.4103 H   0  0  0  0  0  0  0  0  0  0  0  0
   89.0762  -18.1545    5.1035 H   0  0  0  0  0  0  0  0  0  0  0  0
   88.1075  -18.6633    3.6944 H   0  0  0  0  0  0  0  0  0  0  0  0
   87.2780  -14.3038    6.5190 H   0  0  0  0  0  0  0  0  0  0  0  0
  1  2  1  0
  2  3  1  0
  4  3  1  0
  4  5  1  0
  4  8  1  0
  5 10  1  0
  6  7  1  0
  6  8  1  0
  6 10  1  0
  8  9  1  0
 10 11  1  0
 11 12  1  0
 11 20  1  0
 12 13  2  0
 13 14  1  0
 14 15  2  0
 14 20  1  0
 15 16  1  0
 15 17  1  0
 17 18  2  0
 18 19  1  0
 19 20  2  0
  1 21  1  0
  1 22  1  0
  1 23  1  0
  3 24  1  0
  3 25  1  0
  4 26  1  6
  6 27  1  1
  7 28  1  0
  8 29  1  1
  9 30  1  0
 10 31  1  6
 12 32  1  0
 16 33  1  0
 16 34  1  0
 18 35  1  0
M  END
>  <filename_input>  (19) 
8C5M_MTA_docked.sdf

>  <pdb_id>  (19) 
8C5M_MTA

>  <pose_rank>  (19) 
18

>  <num_atoms_heavy>  (19) 
20

>  <num_torsions>  (19) 
3

>  <pose>  (19) 
[82.50156441142458, -12.8068958393225, 4.074338406765594, -0.3214712575020543, -1.2256659843787776, 2.835908228588448, 8.355743781907911, 4.7085011574338855, -2.832172734796794]

>  <energy>  (19) 
-436.1871836476929

>  <inter_energy>  (19) 
-442.5085582686323

>  <intra_energy>  (19) 
25.69135208829404

>  <rmsd>  (19) 
7.1091

>  <sdf_rank>  (19) 
0

$$$$

     RDKit          3D

 35 37  0  0  0  0  0  0  0  0999 V2000
   75.1343  -22.8292   -0.8287 C   0  0  0  0  0  0  0  0  0  0  0  0
   76.5818  -22.5262    0.2544 S   0  0  0  0  0  0  0  0  0  0  0  0
   76.1617  -20.9365    1.0382 C   0  0  0  0  0  0  0  0  0  0  0  0
   74.6672  -20.7378    1.3533 C   0  0  1  0  0  0  0  0  0  0  0  0
   74.3267  -20.9894    2.7222 O   0  0  0  0  0  0  0  0  0  0  0  0
   73.6826  -18.8071    2.4912 C   0  0  2  0  0  0  0  0  0  0  0  0
   72.6355  -17.8813    2.3835 O   0  0  0  0  0  0  0  0  0  0  0  0
   74.2916  -19.2618    1.1463 C   0  0  2  0  0  0  0  0  0  0  0  0
   73.3401  -19.1141    0.1203 O   0  0  0  0  0  0  0  0  0  0  0  0
   73.2879  -20.1438    3.1261 C   0  0  2  0  0  0  0  0  0  0  0  0
   73.2382  -20.0357    4.5638 N   0  0  0  0  0  0  0  0  0  0  0  0
   72.9005  -18.9361    5.2884 C   0  0  0  0  0  0  0  0  0  0  0  0
   72.9240  -19.1455    6.5747 N   0  0  0  0  0  0  0  0  0  0  0  0
   73.2963  -20.4614    6.7126 C   0  0  0  0  0  0  0  0  0  0  0  0
   73.4928  -21.2951    7.8385 C   0  0  0  0  0  0  0  0  0  0  0  0
   73.3409  -20.8745    9.0943 N   0  0  0  0  0  0  0  0  0  0  0  0
   73.8490  -22.5649    7.6271 N   0  0  0  0  0  0  0  0  0  0  0  0
   73.9773  -22.9646    6.3639 C   0  0  0  0  0  0  0  0  0  0  0  0
   73.8325  -22.2846    5.2384 N   0  0  0  0  0  0  0  0  0  0  0  0
   73.4819  -21.0324    5.4693 C   0  0  0  0  0  0  0  0  0  0  0  0
   74.2449  -23.0154   -0.2087 H   0  0  0  0  0  0  0  0  0  0  0  0
   74.9606  -21.9479   -1.4637 H   0  0  0  0  0  0  0  0  0  0  0  0
   75.3286  -23.7061   -1.4637 H   0  0  0  0  0  0  0  0  0  0  0  0
   76.7216  -20.8637    1.9822 H   0  0  0  0  0  0  0  0  0  0  0  0
   76.4274  -20.1563    0.3097 H   0  0  0  0  0  0  0  0  0  0  0  0
   74.1426  -21.4424    0.6912 H   0  0  0  0  0  0  0  0  0  0  0  0
   74.3853  -18.2240    3.1046 H   0  0  0  0  0  0  0  0  0  0  0  0
   72.3353  -17.6158    3.2887 H   0  0  0  0  0  0  0  0  0  0  0  0
   75.1686  -18.6661    0.8532 H   0  0  0  0  0  0  0  0  0  0  0  0
   72.4444  -18.9750    0.5184 H   0  0  0  0  0  0  0  0  0  0  0  0
   72.2915  -20.4980    2.8233 H   0  0  0  0  0  0  0  0  0  0  0  0
   72.6348  -17.9693    4.8358 H   0  0  0  0  0  0  0  0  0  0  0  0
   73.4970  -21.5248    9.8776 H   0  0  0  0  0  0  0  0  0  0  0  0
   73.0675  -19.8992    9.2813 H   0  0  0  0  0  0  0  0  0  0  0  0
   74.2451  -24.0238    6.2361 H   0  0  0  0  0  0  0  0  0  0  0  0
  1  2  1  0
  2  3  1  0
  4  3  1  0
  4  5  1  0
  4  8  1  0
  5 10  1  0
  6  7  1  0
  6  8  1  0
  6 10  1  0
  8  9  1  0
 10 11  1  0
 11 12  1  0
 11 20  1  0
 12 13  2  0
 13 14  1  0
 14 15  2  0
 14 20  1  0
 15 16  1  0
 15 17  1  0
 17 18  2  0
 18 19  1  0
 19 20  2  0
  1 21  1  0
  1 22  1  0
  1 23  1  0
  3 24  1  0
  3 25  1  0
  4 26  1  6
  6 27  1  1
  7 28  1  0
  8 29  1  6
  9 30  1  0
 10 31  1  6
 12 32  1  0
 16 33  1  0
 16 34  1  0
 18 35  1  0
M  END
>  <filename_input>  (20) 
8C5M_MTA_docked.sdf

>  <pdb_id>  (20) 
8C5M_MTA

>  <pose_rank>  (20) 
19

>  <num_atoms_heavy>  (20) 
20

>  <num_torsions>  (20) 
3

>  <pose>  (20) 
[74.66722655863704, -20.73782220242867, 1.3532959379189313, 0.4238790691167793, -3.6402286615638038, -3.0230893644066548, 1.594838172551129, -1.2496556792714344, 1.527059931063312]

>  <energy>  (20) 
-135.6506269850449

>  <inter_energy>  (20) 
-182.85718764391743

>  <intra_energy>  (20) 
19.247929596542484

>  <rmsd>  (20) 
12.2604

>  <sdf_rank>  (20) 
0

$$$$

     RDKit          3D

 35 37  0  0  0  0  0  0  0  0999 V2000
   74.4100  -23.0974    4.7857 C   0  0  0  0  0  0  0  0  0  0  0  0
   72.8121  -22.7204    3.9701 S   0  0  0  0  0  0  0  0  0  0  0  0
   72.6883  -20.9133    4.1621 C   0  0  0  0  0  0  0  0  0  0  0  0
   73.6006  -20.0929    3.2309 C   0  0  1  0  0  0  0  0  0  0  0  0
   73.8772  -20.7350    1.9802 O   0  0  0  0  0  0  0  0  0  0  0  0
   72.8761  -18.8008    1.2822 C   0  0  2  0  0  0  0  0  0  0  0  0
   73.0119  -17.5402    0.6842 O   0  0  0  0  0  0  0  0  0  0  0  0
   72.8853  -18.7937    2.8269 C   0  0  2  0  0  0  0  0  0  0  0  0
   73.5783  -17.6611    3.2924 O   0  0  0  0  0  0  0  0  0  0  0  0
   74.0090  -19.7814    0.9651 C   0  0  2  0  0  0  0  0  0  0  0  0
   73.8226  -20.3800   -0.3343 N   0  0  0  0  0  0  0  0  0  0  0  0
   72.8678  -20.0639   -1.2490 C   0  0  0  0  0  0  0  0  0  0  0  0
   72.9616  -20.7612   -2.3463 N   0  0  0  0  0  0  0  0  0  0  0  0
   74.0432  -21.5864   -2.1502 C   0  0  0  0  0  0  0  0  0  0  0  0
   74.6676  -22.5661   -2.9575 C   0  0  0  0  0  0  0  0  0  0  0  0
   74.2400  -22.8872   -4.1786 N   0  0  0  0  0  0  0  0  0  0  0  0
   75.7372  -23.1979   -2.4668 N   0  0  0  0  0  0  0  0  0  0  0  0
   76.1542  -22.8468   -1.2524 C   0  0  0  0  0  0  0  0  0  0  0  0
   75.6543  -21.9628   -0.4046 N   0  0  0  0  0  0  0  0  0  0  0  0
   74.5977  -21.3509   -0.9080 C   0  0  0  0  0  0  0  0  0  0  0  0
   74.2805  -23.0668    5.8776 H   0  0  0  0  0  0  0  0  0  0  0  0
   74.7479  -24.0999    4.4844 H   0  0  0  0  0  0  0  0  0  0  0  0
   75.1603  -22.3516    4.4844 H   0  0  0  0  0  0  0  0  0  0  0  0
   71.6468  -20.6202    3.9635 H   0  0  0  0  0  0  0  0  0  0  0  0
   73.0182  -20.6910    5.1876 H   0  0  0  0  0  0  0  0  0  0  0  0
   74.5295  -19.9473    3.8017 H   0  0  0  0  0  0  0  0  0  0  0  0
   71.9064  -19.1041    0.8607 H   0  0  0  0  0  0  0  0  0  0  0  0
   73.0866  -16.8476    1.3876 H   0  0  0  0  0  0  0  0  0  0  0  0
   71.8746  -18.7461    3.2584 H   0  0  0  0  0  0  0  0  0  0  0  0
   73.5797  -17.6589    4.2824 H   0  0  0  0  0  0  0  0  0  0  0  0
   75.0026  -19.3108    0.9320 H   0  0  0  0  0  0  0  0  0  0  0  0
   72.0958  -19.2986   -1.0806 H   0  0  0  0  0  0  0  0  0  0  0  0
   74.7330  -23.6090   -4.7235 H   0  0  0  0  0  0  0  0  0  0  0  0
   73.4168  -22.4136   -4.5771 H   0  0  0  0  0  0  0  0  0  0  0  0
   77.0534  -23.3728   -0.8993 H   0  0  0  0  0  0  0  0  0  0  0  0
  1  2  1  0
  2  3  1  0
  4  3  1  0
  4  5  1  0
  4  8  1  0
  5 10  1  0
  6  7  1  0
  6  8  1  0
  6 10  1  0
  8  9  1  0
 10 11  1  0
 11 12  1  0
 11 20  1  0
 12 13  2  0
 13 14  1  0
 14 15  2  0
 14 20  1  0
 15 16  1  0
 15 17  1  0
 17 18  2  0
 18 19  1  0
 19 20  2  0
  1 21  1  0
  1 22  1  0
  1 23  1  0
  3 24  1  0
  3 25  1  0
  4 26  1  1
  6 27  1  1
  7 28  1  0
  8 29  1  1
  9 30  1  0
 10 31  1  6
 12 32  1  0
 16 33  1  0
 16 34  1  0
 18 35  1  0
M  END
>  <filename_input>  (21) 
8C5M_MTA_docked.sdf

>  <pdb_id>  (21) 
8C5M_MTA

>  <pose_rank>  (21) 
20

>  <num_atoms_heavy>  (21) 
20

>  <num_torsions>  (21) 
3

>  <pose>  (21) 
[73.6005526354182, -20.092935067175322, 3.230928214498701, 1.3312794251186502, 3.61613612326308, -1.6796690963684322, -5.137867907583439, 3.806508700038662, 2.2080740019801253]

>  <energy>  (21) 
-81.94023984471046

>  <inter_energy>  (21) 
-95.07455849354035

>  <intra_energy>  (21) 
7.627538471817855

>  <rmsd>  (21) 
13.0743

>  <sdf_rank>  (21) 
0

$$$$

     RDKit          3D

 35 37  0  0  0  0  0  0  0  0999 V2000
   73.5744  -20.7252    0.4815 C   0  0  0  0  0  0  0  0  0  0  0  0
   74.5059  -19.3493    1.2559 S   0  0  0  0  0  0  0  0  0  0  0  0
   76.2373  -19.8636    1.0200 C   0  0  0  0  0  0  0  0  0  0  0  0
   76.8700  -20.5978    2.2171 C   0  0  1  0  0  0  0  0  0  0  0  0
   76.7206  -19.9069    3.4635 O   0  0  0  0  0  0  0  0  0  0  0  0
   75.6641  -21.8846    3.9146 C   0  0  2  0  0  0  0  0  0  0  0  0
   75.6826  -23.1177    4.5811 O   0  0  0  0  0  0  0  0  0  0  0  0
   76.1392  -21.9306    2.4455 C   0  0  2  0  0  0  0  0  0  0  0  0
   77.0019  -23.0265    2.2596 O   0  0  0  0  0  0  0  0  0  0  0  0
   76.5924  -20.8234    4.5127 C   0  0  2  0  0  0  0  0  0  0  0  0
   75.9898  -20.2054    5.6687 N   0  0  0  0  0  0  0  0  0  0  0  0
   76.4844  -20.1865    6.9349 C   0  0  0  0  0  0  0  0  0  0  0  0
   75.7273  -19.5304    7.7687 N   0  0  0  0  0  0  0  0  0  0  0  0
   74.6698  -19.0852    7.0120 C   0  0  0  0  0  0  0  0  0  0  0  0
   73.5228  -18.3151    7.3163 C   0  0  0  0  0  0  0  0  0  0  0  0
   73.2529  -17.8585    8.5393 N   0  0  0  0  0  0  0  0  0  0  0  0
   72.6712  -18.0355    6.3260 N   0  0  0  0  0  0  0  0  0  0  0  0
   72.9723  -18.4883    5.1110 C   0  0  0  0  0  0  0  0  0  0  0  0
   73.9979  -19.2195    4.7065 N   0  0  0  0  0  0  0  0  0  0  0  0
   74.8262  -19.4858    5.7000 C   0  0  0  0  0  0  0  0  0  0  0  0
   73.1425  -21.3631    1.2667 H   0  0  0  0  0  0  0  0  0  0  0  0
   72.7672  -20.3155   -0.1434 H   0  0  0  0  0  0  0  0  0  0  0  0
   74.2546  -21.3225   -0.1434 H   0  0  0  0  0  0  0  0  0  0  0  0
   76.2779  -20.5341    0.1490 H   0  0  0  0  0  0  0  0  0  0  0  0
   76.8164  -18.9378    0.8878 H   0  0  0  0  0  0  0  0  0  0  0  0
   77.9345  -20.6963    1.9578 H   0  0  0  0  0  0  0  0  0  0  0  0
   74.5972  -21.6353    4.0124 H   0  0  0  0  0  0  0  0  0  0  0  0
   75.6803  -22.9642    5.5591 H   0  0  0  0  0  0  0  0  0  0  0  0
   75.3100  -22.0559    1.7336 H   0  0  0  0  0  0  0  0  0  0  0  0
   77.2805  -23.3804    3.1413 H   0  0  0  0  0  0  0  0  0  0  0  0
   77.5542  -21.2264    4.8627 H   0  0  0  0  0  0  0  0  0  0  0  0
   77.4264  -20.6745    7.2257 H   0  0  0  0  0  0  0  0  0  0  0  0
   72.4023  -17.3017    8.7051 H   0  0  0  0  0  0  0  0  0  0  0  0
   73.8949  -18.0624    9.3185 H   0  0  0  0  0  0  0  0  0  0  0  0
   72.2581  -18.2118    4.3214 H   0  0  0  0  0  0  0  0  0  0  0  0
  1  2  1  0
  2  3  1  0
  4  3  1  0
  4  5  1  0
  4  8  1  0
  5 10  1  0
  6  7  1  0
  6  8  1  0
  6 10  1  0
  8  9  1  0
 10 11  1  0
 11 12  1  0
 11 20  1  0
 12 13  2  0
 13 14  1  0
 14 15  2  0
 14 20  1  0
 15 16  1  0
 15 17  1  0
 17 18  2  0
 18 19  1  0
 19 20  2  0
  1 21  1  0
  1 22  1  0
  1 23  1  0
  3 24  1  0
  3 25  1  0
  4 26  1  6
  6 27  1  6
  7 28  1  0
  8 29  1  6
  9 30  1  0
 10 31  1  1
 12 32  1  0
 16 33  1  0
 16 34  1  0
 18 35  1  0
M  END
>  <filename_input>  (22) 
8C5M_MTA_docked.sdf

>  <pdb_id>  (22) 
8C5M_MTA

>  <pose_rank>  (22) 
21

>  <num_atoms_heavy>  (22) 
20

>  <num_torsions>  (22) 
3

>  <pose>  (22) 
[76.8700476314075, -20.597755436411546, 2.2170625474841708, 1.6856262869045249, -1.0336833773050684, -1.7464779055143391, 3.144017078404357, -3.885635327634902, -0.7698539446516496]

>  <energy>  (22) 
-169.23194224211508

>  <inter_energy>  (22) 
-168.27174152061227

>  <intra_energy>  (22) 
18.50384088918986

>  <rmsd>  (22) 
10.8639

>  <sdf_rank>  (22) 
0

$$$$

     RDKit          3D

 35 37  0  0  0  0  0  0  0  0999 V2000
   89.5328   -3.2052    2.9417 C   0  0  0  0  0  0  0  0  0  0  0  0
   87.7985   -3.2772    2.3524 S   0  0  0  0  0  0  0  0  0  0  0  0
   86.8509   -3.2052    3.9064 C   0  0  0  0  0  0  0  0  0  0  0  0
   85.5101   -3.9629    3.8901 C   0  0  1  0  0  0  0  0  0  0  0  0
   85.1459   -4.5207    5.1587 O   0  0  0  0  0  0  0  0  0  0  0  0
   83.3771   -3.1286    4.7539 C   0  0  2  0  0  0  0  0  0  0  0  0
   82.0257   -2.9930    4.4068 O   0  0  0  0  0  0  0  0  0  0  0  0
   84.3696   -2.9802    3.5796 C   0  0  2  0  0  0  0  0  0  0  0  0
   83.7272   -3.3060    2.3709 O   0  0  0  0  0  0  0  0  0  0  0  0
   83.7558   -4.5026    5.3145 C   0  0  2  0  0  0  0  0  0  0  0  0
   83.3898   -4.6092    6.7059 N   0  0  0  0  0  0  0  0  0  0  0  0
   84.1300   -4.2173    7.7769 C   0  0  0  0  0  0  0  0  0  0  0  0
   83.5278   -4.4200    8.9150 N   0  0  0  0  0  0  0  0  0  0  0  0
   82.3161   -4.9760    8.5806 C   0  0  0  0  0  0  0  0  0  0  0  0
   81.2107   -5.4123    9.3480 C   0  0  0  0  0  0  0  0  0  0  0  0
   81.1777   -5.3556   10.6795 N   0  0  0  0  0  0  0  0  0  0  0  0
   80.1508   -5.9053    8.7017 N   0  0  0  0  0  0  0  0  0  0  0  0
   80.2018   -5.9351    7.3719 C   0  0  0  0  0  0  0  0  0  0  0  0
   81.1721   -5.5701    6.5501 N   0  0  0  0  0  0  0  0  0  0  0  0
   82.2101   -5.0873    7.2086 C   0  0  0  0  0  0  0  0  0  0  0  0
   89.5466   -3.2046    4.0416 H   0  0  0  0  0  0  0  0  0  0  0  0
   90.0835   -4.0812    2.5686 H   0  0  0  0  0  0  0  0  0  0  0  0
   90.0090   -2.2865    2.5686 H   0  0  0  0  0  0  0  0  0  0  0  0
   87.4742   -3.6326    4.7056 H   0  0  0  0  0  0  0  0  0  0  0  0
   86.6018   -2.1454    4.0642 H   0  0  0  0  0  0  0  0  0  0  0  0
   85.6450   -4.7603    3.1444 H   0  0  0  0  0  0  0  0  0  0  0  0
   83.4626   -2.3180    5.4925 H   0  0  0  0  0  0  0  0  0  0  0  0
   81.4776   -2.9380    5.2294 H   0  0  0  0  0  0  0  0  0  0  0  0
   84.7489   -1.9535    3.4700 H   0  0  0  0  0  0  0  0  0  0  0  0
   82.8615   -3.7451    2.5653 H   0  0  0  0  0  0  0  0  0  0  0  0
   83.2474   -5.3387    4.8121 H   0  0  0  0  0  0  0  0  0  0  0  0
   85.1335   -3.7750    7.6917 H   0  0  0  0  0  0  0  0  0  0  0  0
   80.3461   -5.6874   11.1886 H   0  0  0  0  0  0  0  0  0  0  0  0
   81.9838   -4.9800   11.1991 H   0  0  0  0  0  0  0  0  0  0  0  0
   79.2975   -6.3232    6.8803 H   0  0  0  0  0  0  0  0  0  0  0  0
  1  2  1  0
  2  3  1  0
  4  3  1  0
  4  5  1  0
  4  8  1  0
  5 10  1  0
  6  7  1  0
  6  8  1  0
  6 10  1  0
  8  9  1  0
 10 11  1  0
 11 12  1  0
 11 20  1  0
 12 13  2  0
 13 14  1  0
 14 15  2  0
 14 20  1  0
 15 16  1  0
 15 17  1  0
 17 18  2  0
 18 19  1  0
 19 20  2  0
  1 21  1  0
  1 22  1  0
  1 23  1  0
  3 24  1  0
  3 25  1  0
  4 26  1  6
  6 27  1  1
  7 28  1  0
  8 29  1  6
  9 30  1  0
 10 31  1  6
 12 32  1  0
 16 33  1  0
 16 34  1  0
 18 35  1  0
M  END
>  <filename_input>  (23) 
8C5M_MTA_docked.sdf

>  <pdb_id>  (23) 
8C5M_MTA

>  <pose_rank>  (23) 
22

>  <num_atoms_heavy>  (23) 
20

>  <num_torsions>  (23) 
3

>  <pose>  (23) 
[85.51008972626542, -3.962913785013337, 3.8900817166149206, -0.5898218759512317, 0.9153448595351478, 1.5085775083928277, -0.4643872616058553, -0.4128318565889317, -1.6934422328843177]

>  <energy>  (23) 
-148.20215812525197

>  <inter_energy>  (23) 
-145.0111212546042

>  <intra_energy>  (23) 
0.33415419430164417

>  <rmsd>  (23) 
10.3026

>  <sdf_rank>  (23) 
0

$$$$

     RDKit          3D

 35 37  0  0  0  0  0  0  0  0999 V2000
   88.4931   -2.9815   -0.4087 C   0  0  0  0  0  0  0  0  0  0  0  0
   86.8843   -3.5287    0.2789 S   0  0  0  0  0  0  0  0  0  0  0  0
   87.3888   -4.5192    1.7219 C   0  0  0  0  0  0  0  0  0  0  0  0
   87.4263   -3.7548    3.0586 C   0  0  1  0  0  0  0  0  0  0  0  0
   86.3872   -4.1328    3.9699 O   0  0  0  0  0  0  0  0  0  0  0  0
   88.2579   -4.6260    5.1896 C   0  0  2  0  0  0  0  0  0  0  0  0
   89.1003   -4.2966    6.2605 O   0  0  0  0  0  0  0  0  0  0  0  0
   88.7203   -4.1025    3.8118 C   0  0  2  0  0  0  0  0  0  0  0  0
   89.5339   -2.9676    3.9838 O   0  0  0  0  0  0  0  0  0  0  0  0
   86.8445   -4.0448    5.2891 C   0  0  2  0  0  0  0  0  0  0  0  0
   86.0244   -4.8352    6.1747 N   0  0  0  0  0  0  0  0  0  0  0  0
   85.4803   -6.0533    5.9132 C   0  0  0  0  0  0  0  0  0  0  0  0
   84.8025   -6.5355    6.9167 N   0  0  0  0  0  0  0  0  0  0  0  0
   84.9047   -5.5837    7.9031 C   0  0  0  0  0  0  0  0  0  0  0  0
   84.4067   -5.5077    9.2251 C   0  0  0  0  0  0  0  0  0  0  0  0
   83.6578   -6.4609    9.7796 N   0  0  0  0  0  0  0  0  0  0  0  0
   84.7039   -4.4249    9.9485 N   0  0  0  0  0  0  0  0  0  0  0  0
   85.4675   -3.4957    9.3778 C   0  0  0  0  0  0  0  0  0  0  0  0
   85.9801   -3.4477    8.1593 N   0  0  0  0  0  0  0  0  0  0  0  0
   85.6737   -4.5259    7.4608 C   0  0  0  0  0  0  0  0  0  0  0  0
   89.1831   -2.7468    0.4152 H   0  0  0  0  0  0  0  0  0  0  0  0
   88.9199   -3.7850   -1.0269 H   0  0  0  0  0  0  0  0  0  0  0  0
   88.3415   -2.0844   -1.0269 H   0  0  0  0  0  0  0  0  0  0  0  0
   86.6803   -5.3541    1.8266 H   0  0  0  0  0  0  0  0  0  0  0  0
   88.4215   -4.8428    1.5252 H   0  0  0  0  0  0  0  0  0  0  0  0
   87.3271   -2.6950    2.7811 H   0  0  0  0  0  0  0  0  0  0  0  0
   88.2840   -5.7233    5.2620 H   0  0  0  0  0  0  0  0  0  0  0  0
   88.6345   -4.4788    7.1149 H   0  0  0  0  0  0  0  0  0  0  0  0
   89.3180   -4.8394    3.2552 H   0  0  0  0  0  0  0  0  0  0  0  0
   89.6583   -2.7941    4.9505 H   0  0  0  0  0  0  0  0  0  0  0  0
   86.8159   -3.0232    5.6958 H   0  0  0  0  0  0  0  0  0  0  0  0
   85.5996   -6.5778    4.9537 H   0  0  0  0  0  0  0  0  0  0  0  0
   83.3214   -6.3539   10.7472 H   0  0  0  0  0  0  0  0  0  0  0  0
   83.4154   -7.3043    9.2404 H   0  0  0  0  0  0  0  0  0  0  0  0
   85.7095   -2.6349   10.0184 H   0  0  0  0  0  0  0  0  0  0  0  0
  1  2  1  0
  2  3  1  0
  4  3  1  0
  4  5  1  0
  4  8  1  0
  5 10  1  0
  6  7  1  0
  6  8  1  0
  6 10  1  0
  8  9  1  0
 10 11  1  0
 11 12  1  0
 11 20  1  0
 12 13  2  0
 13 14  1  0
 14 15  2  0
 14 20  1  0
 15 16  1  0
 15 17  1  0
 17 18  2  0
 18 19  1  0
 19 20  2  0
  1 21  1  0
  1 22  1  0
  1 23  1  0
  3 24  1  0
  3 25  1  0
  4 26  1  6
  6 27  1  6
  7 28  1  0
  8 29  1  6
  9 30  1  0
 10 31  1  1
 12 32  1  0
 16 33  1  0
 16 34  1  0
 18 35  1  0
M  END
>  <filename_input>  (24) 
8C5M_MTA_docked.sdf

>  <pdb_id>  (24) 
8C5M_MTA

>  <pose_rank>  (24) 
23

>  <num_atoms_heavy>  (24) 
20

>  <num_torsions>  (24) 
3

>  <pose>  (24) 
[87.42628162890769, -3.7548351624575687, 3.058562329294899, -4.56138302447991, -0.8989205853285378, 0.3140589189710843, -0.2638112628746889, -1.0825915643745596, 2.543467984902004]

>  <energy>  (24) 
-105.92990030325635

>  <inter_energy>  (24) 
-107.20277769792128

>  <intra_energy>  (24) 
0.0

>  <rmsd>  (24) 
10.7939

>  <sdf_rank>  (24) 
0

$$$$

     RDKit          3D

 35 37  0  0  0  0  0  0  0  0999 V2000
   92.7920   -7.6255   -1.7354 C   0  0  0  0  0  0  0  0  0  0  0  0
   91.1409   -7.3581   -2.4855 S   0  0  0  0  0  0  0  0  0  0  0  0
   91.4331   -7.7645   -4.2369 C   0  0  0  0  0  0  0  0  0  0  0  0
   91.2790   -6.5856   -5.2160 C   0  0  1  0  0  0  0  0  0  0  0  0
   89.9221   -6.3205   -5.5925 O   0  0  0  0  0  0  0  0  0  0  0  0
   90.5233   -4.3294   -4.6414 C   0  0  2  0  0  0  0  0  0  0  0  0
   90.8539   -2.9787   -4.8185 O   0  0  0  0  0  0  0  0  0  0  0  0
   91.7305   -5.2866   -4.5294 C   0  0  2  0  0  0  0  0  0  0  0  0
   92.8444   -4.7239   -5.1792 O   0  0  0  0  0  0  0  0  0  0  0  0
   89.7361   -4.9495   -5.7995 C   0  0  2  0  0  0  0  0  0  0  0  0
   88.3390   -4.5989   -5.7180 N   0  0  0  0  0  0  0  0  0  0  0  0
   87.8167   -3.4265   -5.2698 C   0  0  0  0  0  0  0  0  0  0  0  0
   86.5153   -3.3898   -5.3345 N   0  0  0  0  0  0  0  0  0  0  0  0
   86.1523   -4.6075   -5.8587 C   0  0  0  0  0  0  0  0  0  0  0  0
   84.9016   -5.1835   -6.1832 C   0  0  0  0  0  0  0  0  0  0  0  0
   83.7388   -4.5597   -5.9934 N   0  0  0  0  0  0  0  0  0  0  0  0
   84.8910   -6.4133   -6.7041 N   0  0  0  0  0  0  0  0  0  0  0  0
   86.0660   -7.0076   -6.8995 C   0  0  0  0  0  0  0  0  0  0  0  0
   87.2891   -6.5815   -6.6304 N   0  0  0  0  0  0  0  0  0  0  0  0
   87.2773   -5.3654   -6.1154 C   0  0  0  0  0  0  0  0  0  0  0  0
   92.7034   -7.6112   -0.6391 H   0  0  0  0  0  0  0  0  0  0  0  0
   93.1881   -8.5996   -2.0585 H   0  0  0  0  0  0  0  0  0  0  0  0
   93.4754   -6.8264   -2.0585 H   0  0  0  0  0  0  0  0  0  0  0  0
   92.4580   -8.1530   -4.3301 H   0  0  0  0  0  0  0  0  0  0  0  0
   90.6601   -8.4962   -4.5145 H   0  0  0  0  0  0  0  0  0  0  0  0
   91.8734   -6.8700   -6.0968 H   0  0  0  0  0  0  0  0  0  0  0  0
   89.9439   -4.2592   -3.7089 H   0  0  0  0  0  0  0  0  0  0  0  0
   90.9598   -2.5461   -3.9343 H   0  0  0  0  0  0  0  0  0  0  0  0
   92.0316   -5.4719   -3.4877 H   0  0  0  0  0  0  0  0  0  0  0  0
   93.4904   -4.3975   -4.5037 H   0  0  0  0  0  0  0  0  0  0  0  0
   90.0677   -4.6069   -6.7908 H   0  0  0  0  0  0  0  0  0  0  0  0
   88.4290   -2.5946   -4.8916 H   0  0  0  0  0  0  0  0  0  0  0  0
   82.8566   -5.0264   -6.2479 H   0  0  0  0  0  0  0  0  0  0  0  0
   83.7227   -3.6111   -5.5924 H   0  0  0  0  0  0  0  0  0  0  0  0
   86.0115   -8.0073   -7.3552 H   0  0  0  0  0  0  0  0  0  0  0  0
  1  2  1  0
  2  3  1  0
  4  3  1  0
  4  5  1  0
  4  8  1  0
  5 10  1  0
  6  7  1  0
  6  8  1  0
  6 10  1  0
  8  9  1  0
 10 11  1  0
 11 12  1  0
 11 20  1  0
 12 13  2  0
 13 14  1  0
 14 15  2  0
 14 20  1  0
 15 16  1  0
 15 17  1  0
 17 18  2  0
 18 19  1  0
 19 20  2  0
  1 21  1  0
  1 22  1  0
  1 23  1  0
  3 24  1  0
  3 25  1  0
  4 26  1  6
  6 27  1  1
  7 28  1  0
  8 29  1  1
  9 30  1  0
 10 31  1  6
 12 32  1  0
 16 33  1  0
 16 34  1  0
 18 35  1  0
M  END
>  <filename_input>  (25) 
8C5M_MTA_docked.sdf

>  <pdb_id>  (25) 
8C5M_MTA

>  <pose_rank>  (25) 
24

>  <num_atoms_heavy>  (25) 
20

>  <num_torsions>  (25) 
3

>  <pose>  (25) 
[91.27899595511991, -6.585598975297786, -5.2159877355990885, 0.8156867253736555, 4.898950706316167, -2.995725915224612, -4.639330575402359, 1.855666337759594, -1.1027324070348656]

>  <energy>  (25) 
-22.43169300449692

>  <inter_energy>  (25) 
-42.39455848294204

>  <intra_energy>  (25) 
20.90918819215073

>  <rmsd>  (25) 
13.221

>  <sdf_rank>  (25) 
0

$$$$

     RDKit          3D

 35 37  0  0  0  0  0  0  0  0999 V2000
   85.9400  -17.8940    1.2790 C   0  0  0  0  0  0  0  0  0  0  0  0
   86.0610  -17.7220    3.1000 S   0  0  0  0  0  0  0  0  0  0  0  0
   84.5510  -16.7890    3.5090 C   0  0  0  0  0  0  0  0  0  0  0  0
   84.3370  -15.5010    2.6920 C   0  0  1  0  0  0  0  0  0  0  0  0
   83.0550  -14.8940    2.8950 O   0  0  0  0  0  0  0  0  0  0  0  0
   84.4590  -13.2140    3.5560 C   0  0  2  0  0  0  0  0  0  0  0  0
   85.0270  -11.9620    3.2820 O   0  0  0  0  0  0  0  0  0  0  0  0
   85.3310  -14.4260    3.1600 C   0  0  2  0  0  0  0  0  0  0  0  0
   86.2130  -14.0590    2.1270 O   0  0  0  0  0  0  0  0  0  0  0  0
   83.1580  -13.5020    2.8010 C   0  0  2  0  0  0  0  0  0  0  0  0
   82.0380  -12.8560    3.4410 N   0  0  0  0  0  0  0  0  0  0  0  0
   81.6040  -13.0480    4.7150 C   0  0  0  0  0  0  0  0  0  0  0  0
   80.5780  -12.3050    5.0220 N   0  0  0  0  0  0  0  0  0  0  0  0
   80.3170  -11.5750    3.8870 C   0  0  0  0  0  0  0  0  0  0  0  0
   79.3490  -10.5920    3.5740 C   0  0  0  0  0  0  0  0  0  0  0  0
   78.4180  -10.1830    4.4360 N   0  0  0  0  0  0  0  0  0  0  0  0
   79.3730  -10.0510    2.3530 N   0  0  0  0  0  0  0  0  0  0  0  0
   80.3230  -10.4640    1.5170 C   0  0  0  0  0  0  0  0  0  0  0  0
   81.2680  -11.3740    1.6870 N   0  0  0  0  0  0  0  0  0  0  0  0
   81.2260  -11.8970    2.8990 C   0  0  0  0  0  0  0  0  0  0  0  0
   85.3230  -18.7710    1.0337 H   0  0  0  0  0  0  0  0  0  0  0  0
   85.4776  -16.9903    0.8553 H   0  0  0  0  0  0  0  0  0  0  0  0
   86.9468  -18.0239    0.8553 H   0  0  0  0  0  0  0  0  0  0  0  0
   83.6868  -17.4479    3.3388 H   0  0  0  0  0  0  0  0  0  0  0  0
   84.6611  -16.4723    4.5567 H   0  0  0  0  0  0  0  0  0  0  0  0
   84.4542  -15.8091    1.6426 H   0  0  0  0  0  0  0  0  0  0  0  0
   84.3207  -13.1224    4.6434 H   0  0  0  0  0  0  0  0  0  0  0  0
   85.2361  -11.5011    4.1329 H   0  0  0  0  0  0  0  0  0  0  0  0
   85.9515  -14.7935    3.9907 H   0  0  0  0  0  0  0  0  0  0  0  0
   87.0525  -13.7097    2.5185 H   0  0  0  0  0  0  0  0  0  0  0  0
   83.1585  -13.1314    1.7653 H   0  0  0  0  0  0  0  0  0  0  0  0
   82.0706  -13.7572    5.4145 H   0  0  0  0  0  0  0  0  0  0  0  0
   77.7368   -9.4633    4.1552 H   0  0  0  0  0  0  0  0  0  0  0  0
   78.3799  -10.5867    5.3828 H   0  0  0  0  0  0  0  0  0  0  0  0
   80.3221   -9.9727    0.5328 H   0  0  0  0  0  0  0  0  0  0  0  0
  1  2  1  0
  2  3  1  0
  4  3  1  0
  4  5  1  0
  4  8  1  0
  5 10  1  0
  6  7  1  0
  6  8  1  0
  6 10  1  0
  8  9  1  0
 10 11  1  0
 11 12  1  0
 11 20  1  0
 12 13  2  0
 13 14  1  0
 14 15  2  0
 14 20  1  0
 15 16  1  0
 15 17  1  0
 17 18  2  0
 18 19  1  0
 19 20  2  0
  1 21  1  0
  1 22  1  0
  1 23  1  0
  3 24  1  0
  3 25  1  0
  4 26  1  6
  6 27  1  1
  7 28  1  0
  8 29  1  1
  9 30  1  0
 10 31  1  6
 12 32  1  0
 16 33  1  0
 16 34  1  0
 18 35  1  0
M  END
>  <filename_input>  (26) 
8C5M_MTA_docked.sdf

>  <pdb_id>  (26) 
8C5M_MTA

>  <pose_rank>  (26) 
25

>  <num_atoms_heavy>  (26) 
20

>  <num_torsions>  (26) 
3

>  <pose>  (26) 
[84.337, -15.501, 2.692, 1e-06, 1e-06, 1e-06, 0.0, 0.0, 0.0]

>  <energy>  (26) 
-787.145351870338

>  <inter_energy>  (26) 
-793.6505407238725

>  <intra_energy>  (26) 
0.0

>  <rmsd>  (26) 
0.0

>  <sdf_rank>  (26) 
0

$$$$
