
     RDKit          3D

 41 43  0  0  0  0  0  0  0  0999 V2000
  -28.8778   -0.9321    1.7752 C   0  0  0  0  0  0  0  0  0  0  0  0
  -29.6076   -0.3882    0.5956 C   0  0  0  0  0  0  0  0  0  0  0  0
  -30.7341   -1.1720    0.0285 C   0  0  0  0  0  0  0  0  0  0  0  0
  -31.1248   -2.4561    0.6879 C   0  0  0  0  0  0  0  0  0  0  0  0
  -30.3946   -2.9676    1.8644 C   0  0  0  0  0  0  0  0  0  0  0  0
  -29.2671   -2.2256    2.4213 C   0  0  0  0  0  0  0  0  0  0  0  0
  -33.2150    3.7045    1.0782 C   0  0  0  0  0  0  0  0  0  0  0  0
  -26.8987    5.8069    1.2758 C   0  0  0  0  0  0  0  0  0  0  0  0
  -28.1908    5.3222    1.1278 C   0  0  0  0  0  0  0  0  0  0  0  0
  -28.3263    3.9594    0.7518 C   0  0  0  0  0  0  0  0  0  0  0  0
  -25.8883    3.7685    0.6991 C   0  0  0  0  0  0  0  0  0  0  0  0
  -29.7030    3.3663    0.6706 C   0  0  0  0  0  0  0  0  0  0  0  0
  -30.0861    2.0631    0.3508 C   0  0  0  0  0  0  0  0  0  0  0  0
  -31.4417    2.0461    0.4339 C   0  0  0  0  0  0  0  0  0  0  0  0
  -29.1849    0.8855   -0.0898 C   0  0  0  0  0  0  0  0  0  0  0  0
  -27.7714   -0.1960    2.4435 C   0  0  0  0  0  0  0  0  0  0  0  0
  -27.0884    1.1754    4.2741 C   0  0  0  0  0  0  0  0  0  0  0  0
  -25.7450    5.1174    1.0446 N   0  0  0  0  0  0  0  0  0  0  0  0
  -27.1812    3.1994    0.5622 N   0  0  0  0  0  0  0  0  0  0  0  0
  -31.8450    3.2820    0.8049 N   0  0  0  0  0  0  0  0  0  0  0  0
  -30.7535    4.0903    0.9773 N   0  0  0  0  0  0  0  0  0  0  0  0
  -24.6977    3.0382    0.5239 N   0  0  0  0  0  0  0  0  0  0  0  0
  -28.1425    0.6999    3.4733 O   0  0  0  0  0  0  0  0  0  0  0  0
  -26.6959   -0.3402    2.0749 O   0  0  0  0  0  0  0  0  0  0  0  0
  -26.7543    7.5103    1.6378 Cl  0  0  0  0  0  0  0  0  0  0  0  0
  -31.2722   -0.8141   -0.8617 H   0  0  0  0  0  0  0  0  0  0  0  0
  -31.9731   -3.0310    0.2882 H   0  0  0  0  0  0  0  0  0  0  0  0
  -30.7030   -3.9172    2.3262 H   0  0  0  0  0  0  0  0  0  0  0  0
  -28.7172   -2.6074    3.2941 H   0  0  0  0  0  0  0  0  0  0  0  0
  -33.3735    3.7533    2.1656 H   0  0  0  0  0  0  0  0  0  0  0  0
  -33.3873    4.6975    0.6375 H   0  0  0  0  0  0  0  0  0  0  0  0
  -33.9166    2.9809    0.6375 H   0  0  0  0  0  0  0  0  0  0  0  0
  -29.0688    5.9636    1.2941 H   0  0  0  0  0  0  0  0  0  0  0  0
  -32.0937    1.1826    0.2354 H   0  0  0  0  0  0  0  0  0  0  0  0
  -28.1411    1.1098    0.1750 H   0  0  0  0  0  0  0  0  0  0  0  0
  -29.2802    0.7524   -1.1775 H   0  0  0  0  0  0  0  0  0  0  0  0
  -27.3518    1.0566    5.3354 H   0  0  0  0  0  0  0  0  0  0  0  0
  -26.1752    0.6021    4.0565 H   0  0  0  0  0  0  0  0  0  0  0  0
  -26.9138    2.2395    4.0565 H   0  0  0  0  0  0  0  0  0  0  0  0
  -24.7380    2.0410    0.2691 H   0  0  0  0  0  0  0  0  0  0  0  0
  -23.7863    3.5010    0.6505 H   0  0  0  0  0  0  0  0  0  0  0  0
  1  2  2  0
  1  6  1  0
  1 16  1  0
  2  3  1  0
  2 15  1  0
  3  4  2  0
  4  5  1  0
  5  6  2  0
  7 20  1  0
  8  9  2  0
  8 18  1  0
  8 25  1  0
  9 10  1  0
 10 12  1  0
 10 19  2  0
 11 18  2  0
 11 19  1  0
 11 22  1  0
 12 13  1  0
 12 21  2  0
 13 14  2  0
 13 15  1  0
 14 20  1  0
 16 23  1  0
 16 24  2  0
 17 23  1  0
 20 21  1  0
  3 26  1  0
  4 27  1  0
  5 28  1  0
  6 29  1  0
  7 30  1  0
  7 31  1  0
  7 32  1  0
  9 33  1  0
 14 34  1  0
 15 35  1  0
 15 36  1  0
 17 37  1  0
 17 38  1  0
 17 39  1  0
 22 40  1  0
 22 41  1  0
M  END
>  <filename_input>  (1) 
8CNH_V6U_docked.sdf

>  <pdb_id>  (1) 
8CNH_V6U

>  <pose_rank>  (1) 
0

>  <num_atoms_heavy>  (1) 
25

>  <num_torsions>  (1) 
5

>  <pose>  (1) 
[-33.214959632026165, 3.704453556884506, 1.078197535069617, 5.096525585364472, 2.605661992468382, -2.3892810142225303, 6.2510083300093955, 0.7088917696013477, 9.134992238997855, -1.010140036828516, -0.12473817229529897]

>  <energy>  (1) 
-963.1404272512177

>  <inter_energy>  (1) 
-984.4755236400781

>  <intra_energy>  (1) 
16.876650656819027

>  <rmsd>  (1) 
2.77293

>  <sdf_rank>  (1) 
0

$$$$

     RDKit          3D

 41 43  0  0  0  0  0  0  0  0999 V2000
  -28.1125   -0.8571    2.3254 C   0  0  0  0  0  0  0  0  0  0  0  0
  -28.0571    0.5863    2.6904 C   0  0  0  0  0  0  0  0  0  0  0  0
  -26.7313    1.2480    2.7897 C   0  0  0  0  0  0  0  0  0  0  0  0
  -25.5030    0.4547    2.4763 C   0  0  0  0  0  0  0  0  0  0  0  0
  -25.5848   -0.9712    2.1036 C   0  0  0  0  0  0  0  0  0  0  0  0
  -26.8765   -1.6476    2.0263 C   0  0  0  0  0  0  0  0  0  0  0  0
  -32.5443    2.0323   -0.7700 C   0  0  0  0  0  0  0  0  0  0  0  0
  -27.1824    5.7114    1.7336 C   0  0  0  0  0  0  0  0  0  0  0  0
  -28.3654    4.9983    1.5987 C   0  0  0  0  0  0  0  0  0  0  0  0
  -28.2815    3.7284    0.9683 C   0  0  0  0  0  0  0  0  0  0  0  0
  -25.8774    4.0720    0.6761 C   0  0  0  0  0  0  0  0  0  0  0  0
  -29.5179    2.8812    0.8836 C   0  0  0  0  0  0  0  0  0  0  0  0
  -29.9819    1.9046    1.7659 C   0  0  0  0  0  0  0  0  0  0  0  0
  -31.1474    1.4518    1.2353 C   0  0  0  0  0  0  0  0  0  0  0  0
  -29.2940    1.3707    3.0445 C   0  0  0  0  0  0  0  0  0  0  0  0
  -29.3941   -1.5919    2.1515 C   0  0  0  0  0  0  0  0  0  0  0  0
  -30.8054   -2.3565    0.3844 C   0  0  0  0  0  0  0  0  0  0  0  0
  -25.9548    5.3357    1.2733 N   0  0  0  0  0  0  0  0  0  0  0  0
  -27.0436    3.2757    0.5350 N   0  0  0  0  0  0  0  0  0  0  0  0
  -31.3747    2.1430    0.0958 N   0  0  0  0  0  0  0  0  0  0  0  0
  -30.3689    3.0508   -0.1007 N   0  0  0  0  0  0  0  0  0  0  0  0
  -24.5992    3.6549    0.2592 N   0  0  0  0  0  0  0  0  0  0  0  0
  -30.1513   -1.2739    0.9998 O   0  0  0  0  0  0  0  0  0  0  0  0
  -29.7345   -2.3296    2.9598 O   0  0  0  0  0  0  0  0  0  0  0  0
  -27.3249    7.3127    2.4182 Cl  0  0  0  0  0  0  0  0  0  0  0  0
  -26.6542    2.3037    3.0886 H   0  0  0  0  0  0  0  0  0  0  0  0
  -24.5188    0.9436    2.5246 H   0  0  0  0  0  0  0  0  0  0  0  0
  -24.6635   -1.5298    1.8818 H   0  0  0  0  0  0  0  0  0  0  0  0
  -26.9401   -2.7117    1.7549 H   0  0  0  0  0  0  0  0  0  0  0  0
  -33.4507    1.9465   -0.1526 H   0  0  0  0  0  0  0  0  0  0  0  0
  -32.6166    2.9276   -1.4049 H   0  0  0  0  0  0  0  0  0  0  0  0
  -32.4473    1.1393   -1.4049 H   0  0  0  0  0  0  0  0  0  0  0  0
  -29.3233    5.3979    1.9630 H   0  0  0  0  0  0  0  0  0  0  0  0
  -31.7902    0.6649    1.6567 H   0  0  0  0  0  0  0  0  0  0  0  0
  -29.9940    0.7177    3.5862 H   0  0  0  0  0  0  0  0  0  0  0  0
  -29.0054    2.2241    3.6757 H   0  0  0  0  0  0  0  0  0  0  0  0
  -31.2104   -3.0271    1.1566 H   0  0  0  0  0  0  0  0  0  0  0  0
  -31.6273   -1.9802   -0.2423 H   0  0  0  0  0  0  0  0  0  0  0  0
  -30.0898   -2.9090   -0.2423 H   0  0  0  0  0  0  0  0  0  0  0  0
  -24.4780    2.7346   -0.1872 H   0  0  0  0  0  0  0  0  0  0  0  0
  -23.7852    4.2701    0.4004 H   0  0  0  0  0  0  0  0  0  0  0  0
  1  2  2  0
  1  6  1  0
  1 16  1  0
  2  3  1  0
  2 15  1  0
  3  4  2  0
  4  5  1  0
  5  6  2  0
  7 20  1  0
  8  9  2  0
  8 18  1  0
  8 25  1  0
  9 10  1  0
 10 12  1  0
 10 19  2  0
 11 18  2  0
 11 19  1  0
 11 22  1  0
 12 13  1  0
 12 21  2  0
 13 14  2  0
 13 15  1  0
 14 20  1  0
 16 23  1  0
 16 24  2  0
 17 23  1  0
 20 21  1  0
  3 26  1  0
  4 27  1  0
  5 28  1  0
  6 29  1  0
  7 30  1  0
  7 31  1  0
  7 32  1  0
  9 33  1  0
 14 34  1  0
 15 35  1  0
 15 36  1  0
 17 37  1  0
 17 38  1  0
 17 39  1  0
 22 40  1  0
 22 41  1  0
M  END
>  <filename_input>  (2) 
8CNH_V6U_docked.sdf

>  <pdb_id>  (2) 
8CNH_V6U

>  <pose_rank>  (2) 
1

>  <num_atoms_heavy>  (2) 
25

>  <num_torsions>  (2) 
5

>  <pose>  (2) 
[-32.54433828258944, 2.0322508135681163, -0.7699810495325309, 4.309053928735248, 2.3067732086005504, -0.42810896541317, 1.4864678229485044, 9.679322922041184, -9.432945696569362, 11.265359599274763, 5.721576541652754]

>  <energy>  (2) 
-816.9185503709504

>  <inter_energy>  (2) 
-854.7352810497105

>  <intra_energy>  (2) 
39.695725888346836

>  <rmsd>  (2) 
1.89679

>  <sdf_rank>  (2) 
0

$$$$

     RDKit          3D

 41 43  0  0  0  0  0  0  0  0999 V2000
  -29.8466   -1.0720    1.5353 C   0  0  0  0  0  0  0  0  0  0  0  0
  -29.1851    0.2533    1.3741 C   0  0  0  0  0  0  0  0  0  0  0  0
  -28.1926    0.6850    2.3909 C   0  0  0  0  0  0  0  0  0  0  0  0
  -27.8593   -0.2435    3.5147 C   0  0  0  0  0  0  0  0  0  0  0  0
  -28.5185   -1.5577    3.6453 C   0  0  0  0  0  0  0  0  0  0  0  0
  -29.5167   -1.9900    2.6713 C   0  0  0  0  0  0  0  0  0  0  0  0
  -33.4776    4.0297    1.7323 C   0  0  0  0  0  0  0  0  0  0  0  0
  -26.2493    3.9568    0.8719 C   0  0  0  0  0  0  0  0  0  0  0  0
  -27.5103    3.3773    0.8605 C   0  0  0  0  0  0  0  0  0  0  0  0
  -28.5941    4.1892    1.2883 C   0  0  0  0  0  0  0  0  0  0  0  0
  -27.0182    6.0143    1.6990 C   0  0  0  0  0  0  0  0  0  0  0  0
  -29.9874    3.6363    1.2051 C   0  0  0  0  0  0  0  0  0  0  0  0
  -30.4122    2.3678    0.8078 C   0  0  0  0  0  0  0  0  0  0  0  0
  -31.7652    2.3776    0.9272 C   0  0  0  0  0  0  0  0  0  0  0  0
  -29.5535    1.2021    0.2630 C   0  0  0  0  0  0  0  0  0  0  0  0
  -30.8139   -1.6118    0.5426 C   0  0  0  0  0  0  0  0  0  0  0  0
  -31.5356   -3.4597   -0.7852 C   0  0  0  0  0  0  0  0  0  0  0  0
  -25.9406    5.2132    1.3032 N   0  0  0  0  0  0  0  0  0  0  0  0
  -28.3389    5.4951    1.6813 N   0  0  0  0  0  0  0  0  0  0  0  0
  -32.1266    3.5944    1.3928 N   0  0  0  0  0  0  0  0  0  0  0  0
  -31.0104    4.3624    1.5896 N   0  0  0  0  0  0  0  0  0  0  0  0
  -26.7091    7.3330    2.0826 N   0  0  0  0  0  0  0  0  0  0  0  0
  -30.5292   -2.8946    0.0189 O   0  0  0  0  0  0  0  0  0  0  0  0
  -31.7002   -0.9654    0.2110 O   0  0  0  0  0  0  0  0  0  0  0  0
  -24.9189    2.9094    0.4403 Cl  0  0  0  0  0  0  0  0  0  0  0  0
  -27.7107    1.6712    2.3185 H   0  0  0  0  0  0  0  0  0  0  0  0
  -27.1079    0.0590    4.2590 H   0  0  0  0  0  0  0  0  0  0  0  0
  -28.2551   -2.2180    4.4848 H   0  0  0  0  0  0  0  0  0  0  0  0
  -30.0142   -2.9662    2.7696 H   0  0  0  0  0  0  0  0  0  0  0  0
  -33.5873    4.0651    2.8262 H   0  0  0  0  0  0  0  0  0  0  0  0
  -33.6563    5.0309    1.3133 H   0  0  0  0  0  0  0  0  0  0  0  0
  -34.2072    3.3212    1.3133 H   0  0  0  0  0  0  0  0  0  0  0  0
  -27.6632    2.3376    0.5354 H   0  0  0  0  0  0  0  0  0  0  0  0
  -32.4442    1.5459    0.6883 H   0  0  0  0  0  0  0  0  0  0  0  0
  -28.6350    1.6082   -0.1857 H   0  0  0  0  0  0  0  0  0  0  0  0
  -30.1355    0.6551   -0.4934 H   0  0  0  0  0  0  0  0  0  0  0  0
  -32.3148   -3.8973   -0.1438 H   0  0  0  0  0  0  0  0  0  0  0  0
  -31.9793   -2.6788   -1.4202 H   0  0  0  0  0  0  0  0  0  0  0  0
  -31.0997   -4.2450   -1.4202 H   0  0  0  0  0  0  0  0  0  0  0  0
  -27.4595    7.9710    2.3839 H   0  0  0  0  0  0  0  0  0  0  0  0
  -25.7326    7.6598    2.0619 H   0  0  0  0  0  0  0  0  0  0  0  0
  1  2  2  0
  1  6  1  0
  1 16  1  0
  2  3  1  0
  2 15  1  0
  3  4  2  0
  4  5  1  0
  5  6  2  0
  7 20  1  0
  8  9  2  0
  8 18  1  0
  8 25  1  0
  9 10  1  0
 10 12  1  0
 10 19  2  0
 11 18  2  0
 11 19  1  0
 11 22  1  0
 12 13  1  0
 12 21  2  0
 13 14  2  0
 13 15  1  0
 14 20  1  0
 16 23  1  0
 16 24  2  0
 17 23  1  0
 20 21  1  0
  3 26  1  0
  4 27  1  0
  5 28  1  0
  6 29  1  0
  7 30  1  0
  7 31  1  0
  7 32  1  0
  9 33  1  0
 14 34  1  0
 15 35  1  0
 15 36  1  0
 17 37  1  0
 17 38  1  0
 17 39  1  0
 22 40  1  0
 22 41  1  0
M  END
>  <filename_input>  (3) 
8CNH_V6U_docked.sdf

>  <pdb_id>  (3) 
8CNH_V6U

>  <pose_rank>  (3) 
2

>  <num_atoms_heavy>  (3) 
25

>  <num_torsions>  (3) 
5

>  <pose>  (3) 
[-33.477553709358055, 4.0297155893789744, 1.7322777296278822, -1.6532715835950642, 4.687438604468405, -3.8279972995729175, 59.69195921820733, -75.42524026575789, 25.289322243561635, 37.338459561948234, 12.526284248091752]

>  <energy>  (3) 
-901.1154639634047

>  <inter_energy>  (3) 
-905.4868059693595

>  <intra_energy>  (3) 
41.46907997181265

>  <rmsd>  (3) 
1.78337

>  <sdf_rank>  (3) 
0

$$$$

     RDKit          3D

 41 43  0  0  0  0  0  0  0  0999 V2000
  -32.3925    2.4996    0.6741 C   0  0  0  0  0  0  0  0  0  0  0  0
  -30.9090    2.6375    0.6780 C   0  0  0  0  0  0  0  0  0  0  0  0
  -30.3023    3.8133    1.3522 C   0  0  0  0  0  0  0  0  0  0  0  0
  -31.1981    4.7926    2.0414 C   0  0  0  0  0  0  0  0  0  0  0  0
  -32.6649    4.6268    2.0353 C   0  0  0  0  0  0  0  0  0  0  0  0
  -33.2830    3.4921    1.3553 C   0  0  0  0  0  0  0  0  0  0  0  0
  -28.2119   -1.8562    3.0898 C   0  0  0  0  0  0  0  0  0  0  0  0
  -26.6423    4.8388    2.0099 C   0  0  0  0  0  0  0  0  0  0  0  0
  -27.4321    3.7109    2.1834 C   0  0  0  0  0  0  0  0  0  0  0  0
  -27.1667    2.6041    1.3339 C   0  0  0  0  0  0  0  0  0  0  0  0
  -25.3988    3.9036    0.2527 C   0  0  0  0  0  0  0  0  0  0  0  0
  -27.9324    1.3305    1.5468 C   0  0  0  0  0  0  0  0  0  0  0  0
  -29.1173    0.9012    0.9474 C   0  0  0  0  0  0  0  0  0  0  0  0
  -29.3764   -0.3224    1.4770 C   0  0  0  0  0  0  0  0  0  0  0  0
  -30.0131    1.6704   -0.0520 C   0  0  0  0  0  0  0  0  0  0  0  0
  -33.0881    1.3317    0.0701 C   0  0  0  0  0  0  0  0  0  0  0  0
  -33.5372   -0.9964    0.3471 C   0  0  0  0  0  0  0  0  0  0  0  0
  -25.6703    5.0083    1.0684 N   0  0  0  0  0  0  0  0  0  0  0  0
  -26.1473    2.7066    0.3984 N   0  0  0  0  0  0  0  0  0  0  0  0
  -28.3782   -0.6148    2.3407 N   0  0  0  0  0  0  0  0  0  0  0  0
  -27.4685    0.4083    2.3567 N   0  0  0  0  0  0  0  0  0  0  0  0
  -24.3517    4.0545   -0.6760 N   0  0  0  0  0  0  0  0  0  0  0  0
  -32.6048    0.0532    0.4345 O   0  0  0  0  0  0  0  0  0  0  0  0
  -33.9317    1.5077   -0.6853 O   0  0  0  0  0  0  0  0  0  0  0  0
  -27.0533    6.2229    2.9942 Cl  0  0  0  0  0  0  0  0  0  0  0  0
  -29.2124    3.9615    1.3449 H   0  0  0  0  0  0  0  0  0  0  0  0
  -30.7551    5.6536    2.5632 H   0  0  0  0  0  0  0  0  0  0  0  0
  -33.2985    5.3654    2.5482 H   0  0  0  0  0  0  0  0  0  0  0  0
  -34.3761    3.3694    1.3438 H   0  0  0  0  0  0  0  0  0  0  0  0
  -28.2408   -1.6405    4.1680 H   0  0  0  0  0  0  0  0  0  0  0  0
  -29.0250   -2.5511    2.8330 H   0  0  0  0  0  0  0  0  0  0  0  0
  -27.2446   -2.3127    2.8330 H   0  0  0  0  0  0  0  0  0  0  0  0
  -28.2267    3.6757    2.9433 H   0  0  0  0  0  0  0  0  0  0  0  0
  -30.2420   -0.9602    1.2451 H   0  0  0  0  0  0  0  0  0  0  0  0
  -30.6331    0.9525   -0.6089 H   0  0  0  0  0  0  0  0  0  0  0  0
  -29.3707    2.2341   -0.7444 H   0  0  0  0  0  0  0  0  0  0  0  0
  -33.8230   -1.3182    1.3594 H   0  0  0  0  0  0  0  0  0  0  0  0
  -34.4303   -0.6495   -0.1932 H   0  0  0  0  0  0  0  0  0  0  0  0
  -33.0874   -1.8424   -0.1932 H   0  0  0  0  0  0  0  0  0  0  0  0
  -24.1044    3.2766   -1.3042 H   0  0  0  0  0  0  0  0  0  0  0  0
  -23.8329    4.9428   -0.7272 H   0  0  0  0  0  0  0  0  0  0  0  0
  1  2  2  0
  1  6  1  0
  1 16  1  0
  2  3  1  0
  2 15  1  0
  3  4  2  0
  4  5  1  0
  5  6  2  0
  7 20  1  0
  8  9  2  0
  8 18  1  0
  8 25  1  0
  9 10  1  0
 10 12  1  0
 10 19  2  0
 11 18  2  0
 11 19  1  0
 11 22  1  0
 12 13  1  0
 12 21  2  0
 13 14  2  0
 13 15  1  0
 14 20  1  0
 16 23  1  0
 16 24  2  0
 17 23  1  0
 20 21  1  0
  3 26  1  0
  4 27  1  0
  5 28  1  0
  6 29  1  0
  7 30  1  0
  7 31  1  0
  7 32  1  0
  9 33  1  0
 14 34  1  0
 15 35  1  0
 15 36  1  0
 17 37  1  0
 17 38  1  0
 17 39  1  0
 22 40  1  0
 22 41  1  0
M  END
>  <filename_input>  (4) 
8CNH_V6U_docked.sdf

>  <pdb_id>  (4) 
8CNH_V6U

>  <pose_rank>  (4) 
3

>  <num_atoms_heavy>  (4) 
25

>  <num_torsions>  (4) 
5

>  <pose>  (4) 
[-28.211923577607052, -1.8562231958046955, 3.0897938156513347, 1.514325566162115, 1.4314449050557474, 0.3054856588197358, -1.57500652986996, 3.1756129146944856, 2.592655294811118, 4.58390855629337, -0.3506383111955628]

>  <energy>  (4) 
-851.3525369207318

>  <inter_energy>  (4) 
-869.8004549585627

>  <intra_energy>  (4) 
38.15902089009136

>  <rmsd>  (4) 
3.99782

>  <sdf_rank>  (4) 
0

$$$$

     RDKit          3D

 41 43  0  0  0  0  0  0  0  0999 V2000
  -29.6176   -1.1255    1.3603 C   0  0  0  0  0  0  0  0  0  0  0  0
  -30.0736   -0.1651    0.3165 C   0  0  0  0  0  0  0  0  0  0  0  0
  -31.1816   -0.5652   -0.5876 C   0  0  0  0  0  0  0  0  0  0  0  0
  -31.8298   -1.8982   -0.3896 C   0  0  0  0  0  0  0  0  0  0  0  0
  -31.3690   -2.8271    0.6610 C   0  0  0  0  0  0  0  0  0  0  0  0
  -30.2635   -2.4639    1.5431 C   0  0  0  0  0  0  0  0  0  0  0  0
  -33.2994    3.9498    1.6737 C   0  0  0  0  0  0  0  0  0  0  0  0
  -26.0596    3.8148    0.9611 C   0  0  0  0  0  0  0  0  0  0  0  0
  -27.3262    3.2475    0.9714 C   0  0  0  0  0  0  0  0  0  0  0  0
  -28.4231    4.1287    1.1641 C   0  0  0  0  0  0  0  0  0  0  0  0
  -26.8492    5.9934    1.3340 C   0  0  0  0  0  0  0  0  0  0  0  0
  -29.8163    3.5744    1.0898 C   0  0  0  0  0  0  0  0  0  0  0  0
  -30.2442    2.3129    0.6741 C   0  0  0  0  0  0  0  0  0  0  0  0
  -31.5954    2.3174    0.8127 C   0  0  0  0  0  0  0  0  0  0  0  0
  -29.3911    1.1599    0.0946 C   0  0  0  0  0  0  0  0  0  0  0  0
  -28.5515   -0.7950    2.3437 C   0  0  0  0  0  0  0  0  0  0  0  0
  -27.1250    1.0621    2.8069 C   0  0  0  0  0  0  0  0  0  0  0  0
  -25.7604    5.1289    1.1702 N   0  0  0  0  0  0  0  0  0  0  0  0
  -28.1739    5.4843    1.3226 N   0  0  0  0  0  0  0  0  0  0  0  0
  -31.9525    3.5242    1.3068 N   0  0  0  0  0  0  0  0  0  0  0  0
  -30.8351    4.2907    1.5028 N   0  0  0  0  0  0  0  0  0  0  0  0
  -26.5454    7.3596    1.4846 N   0  0  0  0  0  0  0  0  0  0  0  0
  -27.5262    0.0696    1.8944 O   0  0  0  0  0  0  0  0  0  0  0  0
  -28.5731   -1.2800    3.3818 O   0  0  0  0  0  0  0  0  0  0  0  0
  -24.7202    2.7008    0.8257 Cl  0  0  0  0  0  0  0  0  0  0  0  0
  -31.5199    0.1076   -1.3894 H   0  0  0  0  0  0  0  0  0  0  0  0
  -32.6668   -2.1925   -1.0399 H   0  0  0  0  0  0  0  0  0  0  0  0
  -31.8632   -3.8025    0.7805 H   0  0  0  0  0  0  0  0  0  0  0  0
  -29.9138   -3.1566    2.3228 H   0  0  0  0  0  0  0  0  0  0  0  0
  -33.3892    3.9782    2.7697 H   0  0  0  0  0  0  0  0  0  0  0  0
  -33.4915    4.9525    1.2640 H   0  0  0  0  0  0  0  0  0  0  0  0
  -34.0328    3.2397    1.2640 H   0  0  0  0  0  0  0  0  0  0  0  0
  -27.4736    2.1657    0.8366 H   0  0  0  0  0  0  0  0  0  0  0  0
  -32.2761    1.4889    0.5674 H   0  0  0  0  0  0  0  0  0  0  0  0
  -28.4104    1.1497    0.5927 H   0  0  0  0  0  0  0  0  0  0  0  0
  -29.2659    1.3188   -0.9866 H   0  0  0  0  0  0  0  0  0  0  0  0
  -27.2726    0.6971    3.8340 H   0  0  0  0  0  0  0  0  0  0  0  0
  -26.0617    1.2962    2.6501 H   0  0  0  0  0  0  0  0  0  0  0  0
  -27.7271    1.9693    2.6501 H   0  0  0  0  0  0  0  0  0  0  0  0
  -27.3039    8.0452    1.6089 H   0  0  0  0  0  0  0  0  0  0  0  0
  -25.5645    7.6737    1.4706 H   0  0  0  0  0  0  0  0  0  0  0  0
  1  2  2  0
  1  6  1  0
  1 16  1  0
  2  3  1  0
  2 15  1  0
  3  4  2  0
  4  5  1  0
  5  6  2  0
  7 20  1  0
  8  9  2  0
  8 18  1  0
  8 25  1  0
  9 10  1  0
 10 12  1  0
 10 19  2  0
 11 18  2  0
 11 19  1  0
 11 22  1  0
 12 13  1  0
 12 21  2  0
 13 14  2  0
 13 15  1  0
 14 20  1  0
 16 23  1  0
 16 24  2  0
 17 23  1  0
 20 21  1  0
  3 26  1  0
  4 27  1  0
  5 28  1  0
  6 29  1  0
  7 30  1  0
  7 31  1  0
  7 32  1  0
  9 33  1  0
 14 34  1  0
 15 35  1  0
 15 36  1  0
 17 37  1  0
 17 38  1  0
 17 39  1  0
 22 40  1  0
 22 41  1  0
M  END
>  <filename_input>  (5) 
8CNH_V6U_docked.sdf

>  <pdb_id>  (5) 
8CNH_V6U

>  <pose_rank>  (5) 
4

>  <num_atoms_heavy>  (5) 
25

>  <num_torsions>  (5) 
5

>  <pose>  (5) 
[-33.29941199468974, 3.9498340590012564, 1.673719279042329, 5.693038470649045, 1.8098162926732007, 2.024392586920397, -3.363938663131026, -11.538891243882286, 2.788421818461003, -9.402757034734046, -0.6426906870274404]

>  <energy>  (5) 
-774.323568503758

>  <inter_energy>  (5) 
-843.3656542189948

>  <intra_energy>  (5) 
79.79474726832379

>  <rmsd>  (5) 
3.20378

>  <sdf_rank>  (5) 
0

$$$$

     RDKit          3D

 41 43  0  0  0  0  0  0  0  0999 V2000
  -32.0014    1.2330    0.2535 C   0  0  0  0  0  0  0  0  0  0  0  0
  -30.7673    2.0661    0.1998 C   0  0  0  0  0  0  0  0  0  0  0  0
  -30.8748    3.5212    0.4757 C   0  0  0  0  0  0  0  0  0  0  0  0
  -32.2084    4.0905    0.8414 C   0  0  0  0  0  0  0  0  0  0  0  0
  -33.4146    3.2417    0.9014 C   0  0  0  0  0  0  0  0  0  0  0  0
  -33.3354    1.8136    0.6074 C   0  0  0  0  0  0  0  0  0  0  0  0
  -28.0545   -1.4904    3.6299 C   0  0  0  0  0  0  0  0  0  0  0  0
  -25.1005    3.9596    0.4809 C   0  0  0  0  0  0  0  0  0  0  0  0
  -25.7016    2.7410    0.7637 C   0  0  0  0  0  0  0  0  0  0  0  0
  -26.9166    2.7794    1.4980 C   0  0  0  0  0  0  0  0  0  0  0  0
  -26.7455    5.2179    1.5853 C   0  0  0  0  0  0  0  0  0  0  0  0
  -27.6508    1.4937    1.7468 C   0  0  0  0  0  0  0  0  0  0  0  0
  -28.6928    0.9165    1.0198 C   0  0  0  0  0  0  0  0  0  0  0  0
  -28.9861   -0.2471    1.6560 C   0  0  0  0  0  0  0  0  0  0  0  0
  -29.4335    1.4958   -0.2084 C   0  0  0  0  0  0  0  0  0  0  0  0
  -31.9851   -0.2394    0.0429 C   0  0  0  0  0  0  0  0  0  0  0  0
  -31.1826   -1.6867   -1.6776 C   0  0  0  0  0  0  0  0  0  0  0  0
  -25.5343    5.1881    0.8840 N   0  0  0  0  0  0  0  0  0  0  0  0
  -27.4301    4.0102    1.8805 N   0  0  0  0  0  0  0  0  0  0  0  0
  -28.1420   -0.3643    2.7056 N   0  0  0  0  0  0  0  0  0  0  0  0
  -27.2951    0.7109    2.7379 N   0  0  0  0  0  0  0  0  0  0  0  0
  -27.2282    6.4902    1.9455 N   0  0  0  0  0  0  0  0  0  0  0  0
  -32.0937   -0.6857   -1.2950 O   0  0  0  0  0  0  0  0  0  0  0  0
  -31.9381   -0.9375    0.9505 O   0  0  0  0  0  0  0  0  0  0  0  0
  -23.5560    3.8835   -0.3329 Cl  0  0  0  0  0  0  0  0  0  0  0  0
  -29.9883    4.1695    0.4122 H   0  0  0  0  0  0  0  0  0  0  0  0
  -32.2922    5.1631    1.0703 H   0  0  0  0  0  0  0  0  0  0  0  0
  -34.3827    3.6895    1.1701 H   0  0  0  0  0  0  0  0  0  0  0  0
  -34.2337    1.1799    0.6452 H   0  0  0  0  0  0  0  0  0  0  0  0
  -28.0834   -1.1184    4.6647 H   0  0  0  0  0  0  0  0  0  0  0  0
  -28.9025   -2.1703    3.4608 H   0  0  0  0  0  0  0  0  0  0  0  0
  -27.1116   -2.0311    3.4608 H   0  0  0  0  0  0  0  0  0  0  0  0
  -25.2577    1.7900    0.4344 H   0  0  0  0  0  0  0  0  0  0  0  0
  -29.7691   -0.9646    1.3692 H   0  0  0  0  0  0  0  0  0  0  0  0
  -29.5926    0.6953   -0.9459 H   0  0  0  0  0  0  0  0  0  0  0  0
  -28.8224    2.2989   -0.6461 H   0  0  0  0  0  0  0  0  0  0  0  0
  -30.7552   -2.1562   -0.7793 H   0  0  0  0  0  0  0  0  0  0  0  0
  -31.7042   -2.4479   -2.2763 H   0  0  0  0  0  0  0  0  0  0  0  0
  -30.3758   -1.2387   -2.2763 H   0  0  0  0  0  0  0  0  0  0  0  0
  -28.1145    6.5772    2.4628 H   0  0  0  0  0  0  0  0  0  0  0  0
  -26.6950    7.3341    1.6916 H   0  0  0  0  0  0  0  0  0  0  0  0
  1  2  2  0
  1  6  1  0
  1 16  1  0
  2  3  1  0
  2 15  1  0
  3  4  2  0
  4  5  1  0
  5  6  2  0
  7 20  1  0
  8  9  2  0
  8 18  1  0
  8 25  1  0
  9 10  1  0
 10 12  1  0
 10 19  2  0
 11 18  2  0
 11 19  1  0
 11 22  1  0
 12 13  1  0
 12 21  2  0
 13 14  2  0
 13 15  1  0
 14 20  1  0
 16 23  1  0
 16 24  2  0
 17 23  1  0
 20 21  1  0
  3 26  1  0
  4 27  1  0
  5 28  1  0
  6 29  1  0
  7 30  1  0
  7 31  1  0
  7 32  1  0
  9 33  1  0
 14 34  1  0
 15 35  1  0
 15 36  1  0
 17 37  1  0
 17 38  1  0
 17 39  1  0
 22 40  1  0
 22 41  1  0
M  END
>  <filename_input>  (6) 
8CNH_V6U_docked.sdf

>  <pdb_id>  (6) 
8CNH_V6U

>  <pose_rank>  (6) 
5

>  <num_atoms_heavy>  (6) 
25

>  <num_torsions>  (6) 
5

>  <pose>  (6) 
[-28.054468700894517, -1.4903660325978276, 3.629894456379032, -3.017623764658448, -3.060296213458859, -0.8310445883977767, 1.437949007205241, -3.4674369031073984, 3.078768457792258, 2.208137616262363, -0.7135580452212082]

>  <energy>  (6) 
-789.7008802232615

>  <inter_energy>  (6) 
-789.5994262428609

>  <intra_energy>  (6) 
13.499397374050908

>  <rmsd>  (6) 
4.09517

>  <sdf_rank>  (6) 
0

$$$$

     RDKit          3D

 41 43  0  0  0  0  0  0  0  0999 V2000
  -31.3462   -0.3890   -0.0317 C   0  0  0  0  0  0  0  0  0  0  0  0
  -30.3905   -0.6507    1.0810 C   0  0  0  0  0  0  0  0  0  0  0  0
  -30.0886   -2.0576    1.4477 C   0  0  0  0  0  0  0  0  0  0  0  0
  -30.7189   -3.1608    0.6591 C   0  0  0  0  0  0  0  0  0  0  0  0
  -31.6524   -2.8758   -0.4483 C   0  0  0  0  0  0  0  0  0  0  0  0
  -31.9833   -1.4998   -0.8077 C   0  0  0  0  0  0  0  0  0  0  0  0
  -25.0985   -1.3609    2.3682 C   0  0  0  0  0  0  0  0  0  0  0  0
  -28.9925    4.6339    0.9900 C   0  0  0  0  0  0  0  0  0  0  0  0
  -28.8386    3.2746    1.2240 C   0  0  0  0  0  0  0  0  0  0  0  0
  -27.5117    2.7991    1.3980 C   0  0  0  0  0  0  0  0  0  0  0  0
  -26.6886    5.0770    1.0567 C   0  0  0  0  0  0  0  0  0  0  0  0
  -27.3025    1.3537    1.7456 C   0  0  0  0  0  0  0  0  0  0  0  0
  -28.2474    0.3431    1.9279 C   0  0  0  0  0  0  0  0  0  0  0  0
  -27.5372   -0.7790    2.2132 C   0  0  0  0  0  0  0  0  0  0  0  0
  -29.7894    0.4632    1.8987 C   0  0  0  0  0  0  0  0  0  0  0  0
  -31.6709    0.9836   -0.5042 C   0  0  0  0  0  0  0  0  0  0  0  0
  -32.7117    2.7193    0.7617 C   0  0  0  0  0  0  0  0  0  0  0  0
  -27.9910    5.5503    0.8585 N   0  0  0  0  0  0  0  0  0  0  0  0
  -26.4616    3.7034    1.3319 N   0  0  0  0  0  0  0  0  0  0  0  0
  -26.2256   -0.4523    2.1836 N   0  0  0  0  0  0  0  0  0  0  0  0
  -26.0878    0.8718    1.8639 N   0  0  0  0  0  0  0  0  0  0  0  0
  -25.6584    6.0337    0.9861 N   0  0  0  0  0  0  0  0  0  0  0  0
  -32.8674    1.5535   -0.0098 O   0  0  0  0  0  0  0  0  0  0  0  0
  -30.9854    1.4928   -1.2686 O   0  0  0  0  0  0  0  0  0  0  0  0
  -30.6227    5.1795    0.6769 Cl  0  0  0  0  0  0  0  0  0  0  0  0
  -29.4127   -2.2845    2.2854 H   0  0  0  0  0  0  0  0  0  0  0  0
  -30.4821   -4.2055    0.9092 H   0  0  0  0  0  0  0  0  0  0  0  0
  -32.1031   -3.7084   -1.0084 H   0  0  0  0  0  0  0  0  0  0  0  0
  -32.6835   -1.2845   -1.6283 H   0  0  0  0  0  0  0  0  0  0  0  0
  -24.9174   -1.5068    3.4433 H   0  0  0  0  0  0  0  0  0  0  0  0
  -25.3280   -2.3296    1.9002 H   0  0  0  0  0  0  0  0  0  0  0  0
  -24.2006   -0.9311    1.9002 H   0  0  0  0  0  0  0  0  0  0  0  0
  -29.7039    2.5971    1.2723 H   0  0  0  0  0  0  0  0  0  0  0  0
  -27.9538   -1.7738    2.4292 H   0  0  0  0  0  0  0  0  0  0  0  0
  -30.0687    1.4299    1.4543 H   0  0  0  0  0  0  0  0  0  0  0  0
  -30.1710    0.3945    2.9281 H   0  0  0  0  0  0  0  0  0  0  0  0
  -32.7464    2.4593    1.8300 H   0  0  0  0  0  0  0  0  0  0  0  0
  -31.7433    3.1862    0.5293 H   0  0  0  0  0  0  0  0  0  0  0  0
  -33.5238    3.4239    0.5293 H   0  0  0  0  0  0  0  0  0  0  0  0
  -24.6788    5.7467    1.1234 H   0  0  0  0  0  0  0  0  0  0  0  0
  -25.8842    7.0207    0.7972 H   0  0  0  0  0  0  0  0  0  0  0  0
  1  2  2  0
  1  6  1  0
  1 16  1  0
  2  3  1  0
  2 15  1  0
  3  4  2  0
  4  5  1  0
  5  6  2  0
  7 20  1  0
  8  9  2  0
  8 18  1  0
  8 25  1  0
  9 10  1  0
 10 12  1  0
 10 19  2  0
 11 18  2  0
 11 19  1  0
 11 22  1  0
 12 13  1  0
 12 21  2  0
 13 14  2  0
 13 15  1  0
 14 20  1  0
 16 23  1  0
 16 24  2  0
 17 23  1  0
 20 21  1  0
  3 26  1  0
  4 27  1  0
  5 28  1  0
  6 29  1  0
  7 30  1  0
  7 31  1  0
  7 32  1  0
  9 33  1  0
 14 34  1  0
 15 35  1  0
 15 36  1  0
 17 37  1  0
 17 38  1  0
 17 39  1  0
 22 40  1  0
 22 41  1  0
M  END
>  <filename_input>  (7) 
8CNH_V6U_docked.sdf

>  <pdb_id>  (7) 
8CNH_V6U

>  <pose_rank>  (7) 
6

>  <num_atoms_heavy>  (7) 
25

>  <num_torsions>  (7) 
5

>  <pose>  (7) 
[-25.098497702377003, -1.360890132808978, 2.3682002485456235, -1.698141010327927, -3.0893053498221077, -0.128688518464539, -9.470316388518844, -24.477992118071676, 2.3928411230398634, -4.269843224556797, -0.9943199542672645]

>  <energy>  (7) 
-721.048386575176

>  <inter_energy>  (7) 
-759.1801192554693

>  <intra_energy>  (7) 
45.380365482273206

>  <rmsd>  (7) 
4.23698

>  <sdf_rank>  (7) 
0

$$$$

     RDKit          3D

 41 43  0  0  0  0  0  0  0  0999 V2000
  -31.0772    1.9692    0.6069 C   0  0  0  0  0  0  0  0  0  0  0  0
  -30.2052    1.0191    1.3531 C   0  0  0  0  0  0  0  0  0  0  0  0
  -30.2216   -0.4160    0.9718 C   0  0  0  0  0  0  0  0  0  0  0  0
  -31.0777   -0.8489   -0.1753 C   0  0  0  0  0  0  0  0  0  0  0  0
  -31.9229    0.1142   -0.9082 C   0  0  0  0  0  0  0  0  0  0  0  0
  -31.9417    1.5250   -0.5321 C   0  0  0  0  0  0  0  0  0  0  0  0
  -24.9232   -0.9228    2.2372 C   0  0  0  0  0  0  0  0  0  0  0  0
  -26.5371    5.7731    1.9905 C   0  0  0  0  0  0  0  0  0  0  0  0
  -26.5053    4.4524    2.4160 C   0  0  0  0  0  0  0  0  0  0  0  0
  -26.9766    3.4721    1.5029 C   0  0  0  0  0  0  0  0  0  0  0  0
  -27.4640    5.2525   -0.1020 C   0  0  0  0  0  0  0  0  0  0  0  0
  -26.8750    2.0233    1.8830 C   0  0  0  0  0  0  0  0  0  0  0  0
  -27.8797    1.1435    2.2879 C   0  0  0  0  0  0  0  0  0  0  0  0
  -27.2635   -0.0486    2.4983 C   0  0  0  0  0  0  0  0  0  0  0  0
  -29.3753    1.4526    2.5338 C   0  0  0  0  0  0  0  0  0  0  0  0
  -31.0904    3.4311    0.8818 C   0  0  0  0  0  0  0  0  0  0  0  0
  -31.3842    5.1080    2.5552 C   0  0  0  0  0  0  0  0  0  0  0  0
  -27.0253    6.2280    0.8011 N   0  0  0  0  0  0  0  0  0  0  0  0
  -27.4291    3.8796    0.2563 N   0  0  0  0  0  0  0  0  0  0  0  0
  -25.9518    0.1122    2.2129 N   0  0  0  0  0  0  0  0  0  0  0  0
  -25.7238    1.3986    1.8034 N   0  0  0  0  0  0  0  0  0  0  0  0
  -27.9074    5.7151   -1.3553 N   0  0  0  0  0  0  0  0  0  0  0  0
  -31.7546    3.8445    2.0602 O   0  0  0  0  0  0  0  0  0  0  0  0
  -30.6198    4.1507    0.1242 O   0  0  0  0  0  0  0  0  0  0  0  0
  -26.0497    6.9705    3.1660 Cl  0  0  0  0  0  0  0  0  0  0  0  0
  -29.6143   -1.1483    1.5240 H   0  0  0  0  0  0  0  0  0  0  0  0
  -31.0776   -1.9061   -0.4791 H   0  0  0  0  0  0  0  0  0  0  0  0
  -32.5448   -0.2344   -1.7459 H   0  0  0  0  0  0  0  0  0  0  0  0
  -32.5754    2.2438   -1.0723 H   0  0  0  0  0  0  0  0  0  0  0  0
  -24.6769   -1.1706    3.2802 H   0  0  0  0  0  0  0  0  0  0  0  0
  -25.2957   -1.8220    1.7248 H   0  0  0  0  0  0  0  0  0  0  0  0
  -24.0216   -0.5558    1.7248 H   0  0  0  0  0  0  0  0  0  0  0  0
  -26.1325    4.1778    3.4138 H   0  0  0  0  0  0  0  0  0  0  0  0
  -27.7448   -0.9771    2.8392 H   0  0  0  0  0  0  0  0  0  0  0  0
  -29.5009    2.5347    2.6867 H   0  0  0  0  0  0  0  0  0  0  0  0
  -29.7103    0.9021    3.4252 H   0  0  0  0  0  0  0  0  0  0  0  0
  -31.3903    5.0871    3.6550 H   0  0  0  0  0  0  0  0  0  0  0  0
  -30.3744    5.3597    2.1988 H   0  0  0  0  0  0  0  0  0  0  0  0
  -32.0981    5.8651    2.1988 H   0  0  0  0  0  0  0  0  0  0  0  0
  -28.2425    5.0453   -2.0625 H   0  0  0  0  0  0  0  0  0  0  0  0
  -27.8969    6.7235   -1.5653 H   0  0  0  0  0  0  0  0  0  0  0  0
  1  2  2  0
  1  6  1  0
  1 16  1  0
  2  3  1  0
  2 15  1  0
  3  4  2  0
  4  5  1  0
  5  6  2  0
  7 20  1  0
  8  9  2  0
  8 18  1  0
  8 25  1  0
  9 10  1  0
 10 12  1  0
 10 19  2  0
 11 18  2  0
 11 19  1  0
 11 22  1  0
 12 13  1  0
 12 21  2  0
 13 14  2  0
 13 15  1  0
 14 20  1  0
 16 23  1  0
 16 24  2  0
 17 23  1  0
 20 21  1  0
  3 26  1  0
  4 27  1  0
  5 28  1  0
  6 29  1  0
  7 30  1  0
  7 31  1  0
  7 32  1  0
  9 33  1  0
 14 34  1  0
 15 35  1  0
 15 36  1  0
 17 37  1  0
 17 38  1  0
 17 39  1  0
 22 40  1  0
 22 41  1  0
M  END
>  <filename_input>  (8) 
8CNH_V6U_docked.sdf

>  <pdb_id>  (8) 
8CNH_V6U

>  <pose_rank>  (8) 
7

>  <num_atoms_heavy>  (8) 
25

>  <num_torsions>  (8) 
5

>  <pose>  (8) 
[-24.92316594434257, -0.9227794720340645, 2.2371764824191542, 1.5186190363616916, 2.4625636510301083, -0.11110516676018142, 4.93198334479337, -37.640577430176705, -60.35683425756055, 21.27544894645311, 6.008765054777525]

>  <energy>  (8) 
-650.8038647330854

>  <inter_energy>  (8) 
-671.9599230848496

>  <intra_energy>  (8) 
11.747855529245284

>  <rmsd>  (8) 
4.68493

>  <sdf_rank>  (8) 
0

$$$$

     RDKit          3D

 41 43  0  0  0  0  0  0  0  0999 V2000
  -31.7969    3.7871    1.4843 C   0  0  0  0  0  0  0  0  0  0  0  0
  -31.9632    2.3425    1.8089 C   0  0  0  0  0  0  0  0  0  0  0  0
  -33.3326    1.8133    2.0322 C   0  0  0  0  0  0  0  0  0  0  0  0
  -34.4981    2.7377    1.8792 C   0  0  0  0  0  0  0  0  0  0  0  0
  -34.3084    4.1625    1.5434 C   0  0  0  0  0  0  0  0  0  0  0  0
  -32.9687    4.7089    1.3461 C   0  0  0  0  0  0  0  0  0  0  0  0
  -30.1132   -0.2088   -2.7349 C   0  0  0  0  0  0  0  0  0  0  0  0
  -26.2487    1.7193    2.9731 C   0  0  0  0  0  0  0  0  0  0  0  0
  -27.3812    1.2375    2.3315 C   0  0  0  0  0  0  0  0  0  0  0  0
  -27.6455    1.7417    1.0304 C   0  0  0  0  0  0  0  0  0  0  0  0
  -25.6469    3.1410    1.2052 C   0  0  0  0  0  0  0  0  0  0  0  0
  -28.8063    1.1811    0.2609 C   0  0  0  0  0  0  0  0  0  0  0  0
  -30.1451    1.0689    0.6385 C   0  0  0  0  0  0  0  0  0  0  0  0
  -30.7818    0.5080   -0.4221 C   0  0  0  0  0  0  0  0  0  0  0  0
  -30.7840    1.4243    2.0017 C   0  0  0  0  0  0  0  0  0  0  0  0
  -30.4715    4.3966    1.1939 C   0  0  0  0  0  0  0  0  0  0  0  0
  -28.8777    4.9266   -0.5025 C   0  0  0  0  0  0  0  0  0  0  0  0
  -25.3926    2.6687    2.4982 N   0  0  0  0  0  0  0  0  0  0  0  0
  -26.7703    2.6665    0.4793 N   0  0  0  0  0  0  0  0  0  0  0  0
  -29.8633    0.3121   -1.3946 N   0  0  0  0  0  0  0  0  0  0  0  0
  -28.6410    0.7602   -0.9709 N   0  0  0  0  0  0  0  0  0  0  0  0
  -24.7272    4.0727    0.6879 N   0  0  0  0  0  0  0  0  0  0  0  0
  -29.8749    4.0486   -0.0406 O   0  0  0  0  0  0  0  0  0  0  0  0
  -29.9748    5.0655    1.9808 O   0  0  0  0  0  0  0  0  0  0  0  0
  -25.9994    1.1640    4.6110 Cl  0  0  0  0  0  0  0  0  0  0  0  0
  -33.4871    0.7590    2.3054 H   0  0  0  0  0  0  0  0  0  0  0  0
  -35.5171    2.3481    2.0197 H   0  0  0  0  0  0  0  0  0  0  0  0
  -35.1849    4.8192    1.4407 H   0  0  0  0  0  0  0  0  0  0  0  0
  -32.8239    5.7717    1.1020 H   0  0  0  0  0  0  0  0  0  0  0  0
  -30.5880   -1.1983   -2.6611 H   0  0  0  0  0  0  0  0  0  0  0  0
  -30.7798    0.4782   -3.2768 H   0  0  0  0  0  0  0  0  0  0  0  0
  -29.1602   -0.2988   -3.2768 H   0  0  0  0  0  0  0  0  0  0  0  0
  -28.0432    0.4998    2.8085 H   0  0  0  0  0  0  0  0  0  0  0  0
  -31.8515    0.2582   -0.4793 H   0  0  0  0  0  0  0  0  0  0  0  0
  -30.0350    1.9248    2.6330 H   0  0  0  0  0  0  0  0  0  0  0  0
  -31.1296    0.4984    2.4846 H   0  0  0  0  0  0  0  0  0  0  0  0
  -28.3621    5.3804    0.3567 H   0  0  0  0  0  0  0  0  0  0  0  0
  -28.1521    4.3688   -1.1127 H   0  0  0  0  0  0  0  0  0  0  0  0
  -29.3390    5.7170   -1.1127 H   0  0  0  0  0  0  0  0  0  0  0  0
  -24.8605    4.4568   -0.2585 H   0  0  0  0  0  0  0  0  0  0  0  0
  -23.9211    4.3704    1.2557 H   0  0  0  0  0  0  0  0  0  0  0  0
  1  2  2  0
  1  6  1  0
  1 16  1  0
  2  3  1  0
  2 15  1  0
  3  4  2  0
  4  5  1  0
  5  6  2  0
  7 20  1  0
  8  9  2  0
  8 18  1  0
  8 25  1  0
  9 10  1  0
 10 12  1  0
 10 19  2  0
 11 18  2  0
 11 19  1  0
 11 22  1  0
 12 13  1  0
 12 21  2  0
 13 14  2  0
 13 15  1  0
 14 20  1  0
 16 23  1  0
 16 24  2  0
 17 23  1  0
 20 21  1  0
  3 26  1  0
  4 27  1  0
  5 28  1  0
  6 29  1  0
  7 30  1  0
  7 31  1  0
  7 32  1  0
  9 33  1  0
 14 34  1  0
 15 35  1  0
 15 36  1  0
 17 37  1  0
 17 38  1  0
 17 39  1  0
 22 40  1  0
 22 41  1  0
M  END
>  <filename_input>  (9) 
8CNH_V6U_docked.sdf

>  <pdb_id>  (9) 
8CNH_V6U

>  <pose_rank>  (9) 
8

>  <num_atoms_heavy>  (9) 
25

>  <num_torsions>  (9) 
5

>  <pose>  (9) 
[-30.1132169199877, -0.20875425714411655, -2.734857502895797, 3.28167399783138, 1.8561079722990352, 1.0698703333146746, -2.2590061489129023, 0.5332569112543251, -2.982281626914769, -1.3049652924571447, -0.2526678131637076]

>  <energy>  (9) 
-582.2749753483607

>  <inter_energy>  (9) 
-631.9847914605164

>  <intra_energy>  (9) 
34.81121264937758

>  <rmsd>  (9) 
5.20637

>  <sdf_rank>  (9) 
0

$$$$

     RDKit          3D

 41 43  0  0  0  0  0  0  0  0999 V2000
  -31.3808    1.5449    0.0651 C   0  0  0  0  0  0  0  0  0  0  0  0
  -30.4040    2.6682    0.1273 C   0  0  0  0  0  0  0  0  0  0  0  0
  -30.8187    3.9412    0.7696 C   0  0  0  0  0  0  0  0  0  0  0  0
  -32.1849    4.0356    1.3704 C   0  0  0  0  0  0  0  0  0  0  0  0
  -33.1303    2.9037    1.3081 C   0  0  0  0  0  0  0  0  0  0  0  0
  -32.7517    1.6524    0.6576 C   0  0  0  0  0  0  0  0  0  0  0  0
  -26.2560    6.6419    0.6269 C   0  0  0  0  0  0  0  0  0  0  0  0
  -26.6073    1.0048    4.2058 C   0  0  0  0  0  0  0  0  0  0  0  0
  -26.6056    2.1576    3.4329 C   0  0  0  0  0  0  0  0  0  0  0  0
  -27.1206    2.0472    2.1140 C   0  0  0  0  0  0  0  0  0  0  0  0
  -27.5360   -0.3300    2.5133 C   0  0  0  0  0  0  0  0  0  0  0  0
  -27.2250    3.2868    1.2736 C   0  0  0  0  0  0  0  0  0  0  0  0
  -28.0537    3.5464    0.1813 C   0  0  0  0  0  0  0  0  0  0  0  0
  -27.7657    4.8157   -0.2070 C   0  0  0  0  0  0  0  0  0  0  0  0
  -29.0434    2.5825   -0.5148 C   0  0  0  0  0  0  0  0  0  0  0  0
  -31.0403    0.2166   -0.5113 C   0  0  0  0  0  0  0  0  0  0  0  0
  -31.4537   -2.0759    0.0104 C   0  0  0  0  0  0  0  0  0  0  0  0
  -27.0066   -0.2364    3.8059 N   0  0  0  0  0  0  0  0  0  0  0  0
  -27.5941    0.8174    1.6801 N   0  0  0  0  0  0  0  0  0  0  0  0
  -26.8191    5.2955    0.6306 N   0  0  0  0  0  0  0  0  0  0  0  0
  -26.5086    4.3462    1.5670 N   0  0  0  0  0  0  0  0  0  0  0  0
  -28.0091   -1.5967    2.1218 N   0  0  0  0  0  0  0  0  0  0  0  0
  -30.8912   -0.8491    0.4068 O   0  0  0  0  0  0  0  0  0  0  0  0
  -30.8663    0.1204   -1.6400 O   0  0  0  0  0  0  0  0  0  0  0  0
  -25.8756    1.1392    5.7869 Cl  0  0  0  0  0  0  0  0  0  0  0  0
  -30.1326    4.8004    0.8028 H   0  0  0  0  0  0  0  0  0  0  0  0
  -32.4914    4.9671    1.8687 H   0  0  0  0  0  0  0  0  0  0  0  0
  -34.1299    3.0038    1.7561 H   0  0  0  0  0  0  0  0  0  0  0  0
  -33.4564    0.8094    0.6041 H   0  0  0  0  0  0  0  0  0  0  0  0
  -26.1136    6.9826    1.6631 H   0  0  0  0  0  0  0  0  0  0  0  0
  -25.2865    6.6325    0.1075 H   0  0  0  0  0  0  0  0  0  0  0  0
  -26.9437    7.3255    0.1075 H   0  0  0  0  0  0  0  0  0  0  0  0
  -26.2231    3.1121    3.8236 H   0  0  0  0  0  0  0  0  0  0  0  0
  -28.2205    5.3557   -1.0505 H   0  0  0  0  0  0  0  0  0  0  0  0
  -28.6667    1.5526   -0.4286 H   0  0  0  0  0  0  0  0  0  0  0  0
  -29.1314    2.8669   -1.5738 H   0  0  0  0  0  0  0  0  0  0  0  0
  -31.7221   -2.6614    0.9021 H   0  0  0  0  0  0  0  0  0  0  0  0
  -32.3558   -1.8885   -0.5905 H   0  0  0  0  0  0  0  0  0  0  0  0
  -30.7229   -2.6371   -0.5905 H   0  0  0  0  0  0  0  0  0  0  0  0
  -28.4101   -1.7289    1.1823 H   0  0  0  0  0  0  0  0  0  0  0  0
  -27.9542   -2.3913    2.7749 H   0  0  0  0  0  0  0  0  0  0  0  0
  1  2  2  0
  1  6  1  0
  1 16  1  0
  2  3  1  0
  2 15  1  0
  3  4  2  0
  4  5  1  0
  5  6  2  0
  7 20  1  0
  8  9  2  0
  8 18  1  0
  8 25  1  0
  9 10  1  0
 10 12  1  0
 10 19  2  0
 11 18  2  0
 11 19  1  0
 11 22  1  0
 12 13  1  0
 12 21  2  0
 13 14  2  0
 13 15  1  0
 14 20  1  0
 16 23  1  0
 16 24  2  0
 17 23  1  0
 20 21  1  0
  3 26  1  0
  4 27  1  0
  5 28  1  0
  6 29  1  0
  7 30  1  0
  7 31  1  0
  7 32  1  0
  9 33  1  0
 14 34  1  0
 15 35  1  0
 15 36  1  0
 17 37  1  0
 17 38  1  0
 17 39  1  0
 22 40  1  0
 22 41  1  0
M  END
>  <filename_input>  (10) 
8CNH_V6U_docked.sdf

>  <pdb_id>  (10) 
8CNH_V6U

>  <pose_rank>  (10) 
9

>  <num_atoms_heavy>  (10) 
25

>  <num_torsions>  (10) 
5

>  <pose>  (10) 
[-26.256040616678384, 6.641942709042565, 0.6269296609615935, 0.04863073609379815, -0.7477728486501695, -1.6548469186638177, 0.3529303153049831, -0.12863381652728964, 1.9014779769889623, -0.6666952204927629, -0.6305697550668998]

>  <energy>  (10) 
-670.5935758857366

>  <inter_energy>  (10) 
-683.4875332213492

>  <intra_energy>  (10) 
19.241789973622794

>  <rmsd>  (10) 
4.59382

>  <sdf_rank>  (10) 
0

$$$$

     RDKit          3D

 41 43  0  0  0  0  0  0  0  0999 V2000
  -28.8367    4.4551    1.0416 C   0  0  0  0  0  0  0  0  0  0  0  0
  -29.2933    3.0399    0.9508 C   0  0  0  0  0  0  0  0  0  0  0  0
  -30.5496    2.6487    1.6392 C   0  0  0  0  0  0  0  0  0  0  0  0
  -31.3346    3.6974    2.3605 C   0  0  0  0  0  0  0  0  0  0  0  0
  -30.8682    5.0964    2.4248 C   0  0  0  0  0  0  0  0  0  0  0  0
  -29.6220    5.4962    1.7774 C   0  0  0  0  0  0  0  0  0  0  0  0
  -26.1636   -1.0854    3.5442 C   0  0  0  0  0  0  0  0  0  0  0  0
  -32.5238    0.0812    0.3330 C   0  0  0  0  0  0  0  0  0  0  0  0
  -31.2883    0.4175    0.8684 C   0  0  0  0  0  0  0  0  0  0  0  0
  -30.3460   -0.6342    1.0193 C   0  0  0  0  0  0  0  0  0  0  0  0
  -31.9972   -2.1956    0.1145 C   0  0  0  0  0  0  0  0  0  0  0  0
  -28.9654   -0.3023    1.5068 C   0  0  0  0  0  0  0  0  0  0  0  0
  -28.1728    0.8112    1.2250 C   0  0  0  0  0  0  0  0  0  0  0  0
  -27.0233    0.6328    1.9261 C   0  0  0  0  0  0  0  0  0  0  0  0
  -28.4787    1.9787    0.2573 C   0  0  0  0  0  0  0  0  0  0  0  0
  -27.6205    4.9521    0.3438 C   0  0  0  0  0  0  0  0  0  0  0  0
  -25.5645    3.7560    0.5460 C   0  0  0  0  0  0  0  0  0  0  0  0
  -32.9412   -1.1699   -0.0141 N   0  0  0  0  0  0  0  0  0  0  0  0
  -30.7029   -1.9157    0.6252 N   0  0  0  0  0  0  0  0  0  0  0  0
  -27.1360   -0.5284    2.6092 N   0  0  0  0  0  0  0  0  0  0  0  0
  -28.3603   -1.0901    2.3641 N   0  0  0  0  0  0  0  0  0  0  0  0
  -32.4046   -3.4762   -0.3046 N   0  0  0  0  0  0  0  0  0  0  0  0
  -26.3919    4.7877    1.0253 O   0  0  0  0  0  0  0  0  0  0  0  0
  -27.7279    5.4800   -0.6676 O   0  0  0  0  0  0  0  0  0  0  0  0
  -33.7019    1.3692    0.2520 Cl  0  0  0  0  0  0  0  0  0  0  0  0
  -30.8970    1.6052    1.6188 H   0  0  0  0  0  0  0  0  0  0  0  0
  -32.2784    3.4207    2.8531 H   0  0  0  0  0  0  0  0  0  0  0  0
  -31.4655    5.8452    2.9658 H   0  0  0  0  0  0  0  0  0  0  0  0
  -29.2688    6.5367    1.8290 H   0  0  0  0  0  0  0  0  0  0  0  0
  -26.4958   -0.8951    4.5754 H   0  0  0  0  0  0  0  0  0  0  0  0
  -26.0775   -2.1698    3.3810 H   0  0  0  0  0  0  0  0  0  0  0  0
  -25.1846   -0.6112    3.3810 H   0  0  0  0  0  0  0  0  0  0  0  0
  -31.0500    1.4505    1.1621 H   0  0  0  0  0  0  0  0  0  0  0  0
  -26.1571    1.3107    1.9363 H   0  0  0  0  0  0  0  0  0  0  0  0
  -29.0432    1.5952   -0.6055 H   0  0  0  0  0  0  0  0  0  0  0  0
  -27.5289    2.4214   -0.0772 H   0  0  0  0  0  0  0  0  0  0  0  0
  -25.1278    3.2115    1.3962 H   0  0  0  0  0  0  0  0  0  0  0  0
  -26.1600    3.0630   -0.0664 H   0  0  0  0  0  0  0  0  0  0  0  0
  -24.7587    4.1868   -0.0664 H   0  0  0  0  0  0  0  0  0  0  0  0
  -31.7543   -4.2719   -0.2349 H   0  0  0  0  0  0  0  0  0  0  0  0
  -33.3529   -3.6174   -0.6810 H   0  0  0  0  0  0  0  0  0  0  0  0
  1  2  2  0
  1  6  1  0
  1 16  1  0
  2  3  1  0
  2 15  1  0
  3  4  2  0
  4  5  1  0
  5  6  2  0
  7 20  1  0
  8  9  2  0
  8 18  1  0
  8 25  1  0
  9 10  1  0
 10 12  1  0
 10 19  2  0
 11 18  2  0
 11 19  1  0
 11 22  1  0
 12 13  1  0
 12 21  2  0
 13 14  2  0
 13 15  1  0
 14 20  1  0
 16 23  1  0
 16 24  2  0
 17 23  1  0
 20 21  1  0
  3 26  1  0
  4 27  1  0
  5 28  1  0
  6 29  1  0
  7 30  1  0
  7 31  1  0
  7 32  1  0
  9 33  1  0
 14 34  1  0
 15 35  1  0
 15 36  1  0
 17 37  1  0
 17 38  1  0
 17 39  1  0
 22 40  1  0
 22 41  1  0
M  END
>  <filename_input>  (11) 
8CNH_V6U_docked.sdf

>  <pdb_id>  (11) 
8CNH_V6U

>  <pose_rank>  (11) 
10

>  <num_atoms_heavy>  (11) 
25

>  <num_torsions>  (11) 
5

>  <pose>  (11) 
[-26.163625351131515, -1.0854212453628016, 3.5442107995871823, -0.6462418252114112, 0.20048833080527495, 2.894365956675086, 2.437591895962553, -0.19815452863317984, 0.4781504603693945, 2.235623106265985, -1.2213168789559044]

>  <energy>  (11) 
-625.9556240146444

>  <inter_energy>  (11) 
-716.2112630714345

>  <intra_energy>  (11) 
89.42094018670858

>  <rmsd>  (11) 
6.97244

>  <sdf_rank>  (11) 
0

$$$$

     RDKit          3D

 41 43  0  0  0  0  0  0  0  0999 V2000
  -32.3505    2.9862    0.7075 C   0  0  0  0  0  0  0  0  0  0  0  0
  -31.2892    2.6216    1.6876 C   0  0  0  0  0  0  0  0  0  0  0  0
  -30.8665    3.6308    2.6916 C   0  0  0  0  0  0  0  0  0  0  0  0
  -31.5515    4.9599    2.7124 C   0  0  0  0  0  0  0  0  0  0  0  0
  -32.6103    5.2928    1.7392 C   0  0  0  0  0  0  0  0  0  0  0  0
  -33.0220    4.3244    0.7268 C   0  0  0  0  0  0  0  0  0  0  0  0
  -29.7921    0.0102   -3.1885 C   0  0  0  0  0  0  0  0  0  0  0  0
  -26.2056    2.1248    2.6767 C   0  0  0  0  0  0  0  0  0  0  0  0
  -27.2908    1.5761    2.0077 C   0  0  0  0  0  0  0  0  0  0  0  0
  -27.4977    1.9958    0.6668 C   0  0  0  0  0  0  0  0  0  0  0  0
  -25.5449    3.4560    0.8601 C   0  0  0  0  0  0  0  0  0  0  0  0
  -28.6025    1.3601   -0.1264 C   0  0  0  0  0  0  0  0  0  0  0  0
  -29.9175    1.0868    0.2521 C   0  0  0  0  0  0  0  0  0  0  0  0
  -30.5046    0.5222   -0.8348 C   0  0  0  0  0  0  0  0  0  0  0  0
  -30.5740    1.2963    1.6371 C   0  0  0  0  0  0  0  0  0  0  0  0
  -32.8754    2.0267   -0.3007 C   0  0  0  0  0  0  0  0  0  0  0  0
  -34.8446    1.0030    0.5784 C   0  0  0  0  0  0  0  0  0  0  0  0
  -25.3483    3.0674    2.1905 N   0  0  0  0  0  0  0  0  0  0  0  0
  -26.6167    2.9098    0.1071 N   0  0  0  0  0  0  0  0  0  0  0  0
  -29.5822    0.4787   -1.8223 N   0  0  0  0  0  0  0  0  0  0  0  0
  -28.4086    1.0285   -1.3810 N   0  0  0  0  0  0  0  0  0  0  0  0
  -24.6215    4.3801    0.3358 N   0  0  0  0  0  0  0  0  0  0  0  0
  -33.4964    0.8601    0.2034 O   0  0  0  0  0  0  0  0  0  0  0  0
  -32.7159    2.2381   -1.4157 O   0  0  0  0  0  0  0  0  0  0  0  0
  -26.0303    1.6734    4.3556 Cl  0  0  0  0  0  0  0  0  0  0  0  0
  -30.0630    3.4044    3.4080 H   0  0  0  0  0  0  0  0  0  0  0  0
  -31.2606    5.7045    3.4680 H   0  0  0  0  0  0  0  0  0  0  0  0
  -33.0938    6.2800    1.7769 H   0  0  0  0  0  0  0  0  0  0  0  0
  -33.8063    4.5719   -0.0037 H   0  0  0  0  0  0  0  0  0  0  0  0
  -30.2417   -0.9935   -3.1669 H   0  0  0  0  0  0  0  0  0  0  0  0
  -30.4660    0.7026   -3.7141 H   0  0  0  0  0  0  0  0  0  0  0  0
  -28.8267   -0.0317   -3.7141 H   0  0  0  0  0  0  0  0  0  0  0  0
  -27.9594    0.8501    2.4934 H   0  0  0  0  0  0  0  0  0  0  0  0
  -31.5429    0.1648   -0.8998 H   0  0  0  0  0  0  0  0  0  0  0  0
  -29.7952    1.2755    2.4136 H   0  0  0  0  0  0  0  0  0  0  0  0
  -31.3037    0.4916    1.8101 H   0  0  0  0  0  0  0  0  0  0  0  0
  -34.9210    1.0111    1.6757 H   0  0  0  0  0  0  0  0  0  0  0  0
  -35.2387    1.9480    0.1764 H   0  0  0  0  0  0  0  0  0  0  0  0
  -35.4282    0.1617    0.1764 H   0  0  0  0  0  0  0  0  0  0  0  0
  -24.7134    4.7044   -0.6375 H   0  0  0  0  0  0  0  0  0  0  0  0
  -23.8538    4.7321    0.9255 H   0  0  0  0  0  0  0  0  0  0  0  0
  1  2  2  0
  1  6  1  0
  1 16  1  0
  2  3  1  0
  2 15  1  0
  3  4  2  0
  4  5  1  0
  5  6  2  0
  7 20  1  0
  8  9  2  0
  8 18  1  0
  8 25  1  0
  9 10  1  0
 10 12  1  0
 10 19  2  0
 11 18  2  0
 11 19  1  0
 11 22  1  0
 12 13  1  0
 12 21  2  0
 13 14  2  0
 13 15  1  0
 14 20  1  0
 16 23  1  0
 16 24  2  0
 17 23  1  0
 20 21  1  0
  3 26  1  0
  4 27  1  0
  5 28  1  0
  6 29  1  0
  7 30  1  0
  7 31  1  0
  7 32  1  0
  9 33  1  0
 14 34  1  0
 15 35  1  0
 15 36  1  0
 17 37  1  0
 17 38  1  0
 17 39  1  0
 22 40  1  0
 22 41  1  0
M  END
>  <filename_input>  (12) 
8CNH_V6U_docked.sdf

>  <pdb_id>  (12) 
8CNH_V6U

>  <pose_rank>  (12) 
11

>  <num_atoms_heavy>  (12) 
25

>  <num_torsions>  (12) 
5

>  <pose>  (12) 
[-29.79208307011857, 0.010161024429758145, -3.1885083160951457, -1.860894006742954, -1.178997842843654, -0.6057664774479078, -2.4124561263286135, 6.250855038657576, -0.6850231218439341, -1.482322711615289, -1.600599079978993]

>  <energy>  (12) 
-569.4344524427905

>  <inter_energy>  (12) 
-636.24656584191

>  <intra_energy>  (12) 
75.32101548862556

>  <rmsd>  (12) 
4.46896

>  <sdf_rank>  (12) 
0

$$$$

     RDKit          3D

 41 43  0  0  0  0  0  0  0  0999 V2000
  -29.8319   -1.4055    1.4861 C   0  0  0  0  0  0  0  0  0  0  0  0
  -28.8015   -0.3435    1.3123 C   0  0  0  0  0  0  0  0  0  0  0  0
  -27.8379   -0.0954    2.4146 C   0  0  0  0  0  0  0  0  0  0  0  0
  -27.9071   -0.9493    3.6403 C   0  0  0  0  0  0  0  0  0  0  0  0
  -28.9290   -2.0049    3.7833 C   0  0  0  0  0  0  0  0  0  0  0  0
  -29.9026   -2.2472    2.7224 C   0  0  0  0  0  0  0  0  0  0  0  0
  -26.3434    4.8496    1.1621 C   0  0  0  0  0  0  0  0  0  0  0  0
  -32.9188    3.9166    1.7068 C   0  0  0  0  0  0  0  0  0  0  0  0
  -31.5322    3.9764    1.6941 C   0  0  0  0  0  0  0  0  0  0  0  0
  -30.8494    2.9124    1.0472 C   0  0  0  0  0  0  0  0  0  0  0  0
  -33.0089    1.8781    0.5470 C   0  0  0  0  0  0  0  0  0  0  0  0
  -29.3546    2.9810    0.9270 C   0  0  0  0  0  0  0  0  0  0  0  0
  -28.4573    2.0038    0.4941 C   0  0  0  0  0  0  0  0  0  0  0  0
  -27.2273    2.5761    0.5624 C   0  0  0  0  0  0  0  0  0  0  0  0
  -28.7612    0.5411    0.0930 C   0  0  0  0  0  0  0  0  0  0  0  0
  -30.8054   -1.7610    0.4190 C   0  0  0  0  0  0  0  0  0  0  0  0
  -32.6140   -3.1941   -0.1923 C   0  0  0  0  0  0  0  0  0  0  0  0
  -33.6894    2.9096    1.2047 N   0  0  0  0  0  0  0  0  0  0  0  0
  -31.5919    1.8931    0.4687 N   0  0  0  0  0  0  0  0  0  0  0  0
  -27.3896    3.8450    0.9999 N   0  0  0  0  0  0  0  0  0  0  0  0
  -28.7206    4.0974    1.1977 N   0  0  0  0  0  0  0  0  0  0  0  0
  -33.8062    0.8710   -0.0288 N   0  0  0  0  0  0  0  0  0  0  0  0
  -31.4097   -3.0362    0.5170 O   0  0  0  0  0  0  0  0  0  0  0  0
  -30.9857   -1.0301   -0.4450 O   0  0  0  0  0  0  0  0  0  0  0  0
  -33.7338    5.1809    2.5960 Cl  0  0  0  0  0  0  0  0  0  0  0  0
  -27.0859    0.7030    2.3310 H   0  0  0  0  0  0  0  0  0  0  0  0
  -27.1820   -0.7876    4.4515 H   0  0  0  0  0  0  0  0  0  0  0  0
  -28.9573   -2.6150    4.6981 H   0  0  0  0  0  0  0  0  0  0  0  0
  -30.6692   -3.0288    2.8289 H   0  0  0  0  0  0  0  0  0  0  0  0
  -26.1637    5.0221    2.2335 H   0  0  0  0  0  0  0  0  0  0  0  0
  -25.4169    4.4940    0.6875 H   0  0  0  0  0  0  0  0  0  0  0  0
  -26.6611    5.7897    0.6875 H   0  0  0  0  0  0  0  0  0  0  0  0
  -30.9876    4.8091    2.1632 H   0  0  0  0  0  0  0  0  0  0  0  0
  -26.2719    2.0943    0.3076 H   0  0  0  0  0  0  0  0  0  0  0  0
  -27.9760    0.1821   -0.5887 H   0  0  0  0  0  0  0  0  0  0  0  0
  -29.7414    0.5052   -0.4049 H   0  0  0  0  0  0  0  0  0  0  0  0
  -33.4465   -3.3033    0.5183 H   0  0  0  0  0  0  0  0  0  0  0  0
  -32.7854   -2.3108   -0.8250 H   0  0  0  0  0  0  0  0  0  0  0  0
  -32.5519   -4.0918   -0.8250 H   0  0  0  0  0  0  0  0  0  0  0  0
  -33.3636    0.0853   -0.5264 H   0  0  0  0  0  0  0  0  0  0  0  0
  -34.8322    0.9198    0.0474 H   0  0  0  0  0  0  0  0  0  0  0  0
  1  2  2  0
  1  6  1  0
  1 16  1  0
  2  3  1  0
  2 15  1  0
  3  4  2  0
  4  5  1  0
  5  6  2  0
  7 20  1  0
  8  9  2  0
  8 18  1  0
  8 25  1  0
  9 10  1  0
 10 12  1  0
 10 19  2  0
 11 18  2  0
 11 19  1  0
 11 22  1  0
 12 13  1  0
 12 21  2  0
 13 14  2  0
 13 15  1  0
 14 20  1  0
 16 23  1  0
 16 24  2  0
 17 23  1  0
 20 21  1  0
  3 26  1  0
  4 27  1  0
  5 28  1  0
  6 29  1  0
  7 30  1  0
  7 31  1  0
  7 32  1  0
  9 33  1  0
 14 34  1  0
 15 35  1  0
 15 36  1  0
 17 37  1  0
 17 38  1  0
 17 39  1  0
 22 40  1  0
 22 41  1  0
M  END
>  <filename_input>  (13) 
8CNH_V6U_docked.sdf

>  <pdb_id>  (13) 
8CNH_V6U

>  <pose_rank>  (13) 
12

>  <num_atoms_heavy>  (13) 
25

>  <num_torsions>  (13) 
5

>  <pose>  (13) 
[-26.343391436272587, 4.84957053270066, 1.162118890581513, 0.5952441443941904, -2.887674017568795, -1.048679087973054, -0.2079691339250863, -3.167136100440507, -5.535875309726832, 0.23287735181317556, -0.26218359436002125]

>  <energy>  (13) 
-693.0055737660978

>  <inter_energy>  (13) 
-734.7012486026382

>  <intra_energy>  (13) 
40.98347281125148

>  <rmsd>  (13) 
4.27217

>  <sdf_rank>  (13) 
0

$$$$

     RDKit          3D

 41 43  0  0  0  0  0  0  0  0999 V2000
  -31.4598    1.7286    0.6765 C   0  0  0  0  0  0  0  0  0  0  0  0
  -30.4601    2.7940    0.3847 C   0  0  0  0  0  0  0  0  0  0  0  0
  -30.8757    4.2150    0.5000 C   0  0  0  0  0  0  0  0  0  0  0  0
  -32.2681    4.5262    0.9479 C   0  0  0  0  0  0  0  0  0  0  0  0
  -33.2367    3.4525    1.2444 C   0  0  0  0  0  0  0  0  0  0  0  0
  -32.8563    2.0491    1.1115 C   0  0  0  0  0  0  0  0  0  0  0  0
  -26.5098    6.8300    0.0826 C   0  0  0  0  0  0  0  0  0  0  0  0
  -26.5008    0.1116    2.7299 C   0  0  0  0  0  0  0  0  0  0  0  0
  -26.8914    1.0949    1.8317 C   0  0  0  0  0  0  0  0  0  0  0  0
  -26.7718    2.4428    2.2630 C   0  0  0  0  0  0  0  0  0  0  0  0
  -25.9239    1.6421    4.4131 C   0  0  0  0  0  0  0  0  0  0  0  0
  -27.0938    3.5425    1.2931 C   0  0  0  0  0  0  0  0  0  0  0  0
  -28.0817    3.5910    0.3086 C   0  0  0  0  0  0  0  0  0  0  0  0
  -27.9577    4.8094   -0.2787 C   0  0  0  0  0  0  0  0  0  0  0  0
  -29.0709    2.4760   -0.1051 C   0  0  0  0  0  0  0  0  0  0  0  0
  -31.1230    0.2802    0.6381 C   0  0  0  0  0  0  0  0  0  0  0  0
  -31.9258   -1.7473   -0.3330 C   0  0  0  0  0  0  0  0  0  0  0  0
  -26.0624    0.3100    4.0059 N   0  0  0  0  0  0  0  0  0  0  0  0
  -26.2747    2.6986    3.5327 N   0  0  0  0  0  0  0  0  0  0  0  0
  -26.9507    5.4633    0.3428 N   0  0  0  0  0  0  0  0  0  0  0  0
  -26.4369    4.6774    1.3392 N   0  0  0  0  0  0  0  0  0  0  0  0
  -25.4097    1.8501    5.7069 N   0  0  0  0  0  0  0  0  0  0  0  0
  -31.4964   -0.4226   -0.5313 O   0  0  0  0  0  0  0  0  0  0  0  0
  -30.6338   -0.2085    1.5520 O   0  0  0  0  0  0  0  0  0  0  0  0
  -26.7527   -1.5400    2.2178 Cl  0  0  0  0  0  0  0  0  0  0  0  0
  -30.1712    5.0250    0.2600 H   0  0  0  0  0  0  0  0  0  0  0  0
  -32.5767    5.5762    1.0585 H   0  0  0  0  0  0  0  0  0  0  0  0
  -34.2552    3.7123    1.5688 H   0  0  0  0  0  0  0  0  0  0  0  0
  -33.5778    1.2469    1.3257 H   0  0  0  0  0  0  0  0  0  0  0  0
  -26.3422    7.3493    1.0377 H   0  0  0  0  0  0  0  0  0  0  0  0
  -25.5726    6.8096   -0.4930 H   0  0  0  0  0  0  0  0  0  0  0  0
  -27.2821    7.3612   -0.4930 H   0  0  0  0  0  0  0  0  0  0  0  0
  -27.2756    0.8422    0.8324 H   0  0  0  0  0  0  0  0  0  0  0  0
  -28.5666    5.1946   -1.1100 H   0  0  0  0  0  0  0  0  0  0  0  0
  -28.7430    1.5210    0.3315 H   0  0  0  0  0  0  0  0  0  0  0  0
  -29.0883    2.4053   -1.2026 H   0  0  0  0  0  0  0  0  0  0  0  0
  -31.9926   -1.9536    0.7454 H   0  0  0  0  0  0  0  0  0  0  0  0
  -32.9146   -1.8852   -0.7947 H   0  0  0  0  0  0  0  0  0  0  0  0
  -31.2059   -2.4391   -0.7947 H   0  0  0  0  0  0  0  0  0  0  0  0
  -25.2846    2.8083    6.0635 H   0  0  0  0  0  0  0  0  0  0  0  0
  -25.1586    1.0441    6.2970 H   0  0  0  0  0  0  0  0  0  0  0  0
  1  2  2  0
  1  6  1  0
  1 16  1  0
  2  3  1  0
  2 15  1  0
  3  4  2  0
  4  5  1  0
  5  6  2  0
  7 20  1  0
  8  9  2  0
  8 18  1  0
  8 25  1  0
  9 10  1  0
 10 12  1  0
 10 19  2  0
 11 18  2  0
 11 19  1  0
 11 22  1  0
 12 13  1  0
 12 21  2  0
 13 14  2  0
 13 15  1  0
 14 20  1  0
 16 23  1  0
 16 24  2  0
 17 23  1  0
 20 21  1  0
  3 26  1  0
  4 27  1  0
  5 28  1  0
  6 29  1  0
  7 30  1  0
  7 31  1  0
  7 32  1  0
  9 33  1  0
 14 34  1  0
 15 35  1  0
 15 36  1  0
 17 37  1  0
 17 38  1  0
 17 39  1  0
 22 40  1  0
 22 41  1  0
M  END
>  <filename_input>  (14) 
8CNH_V6U_docked.sdf

>  <pdb_id>  (14) 
8CNH_V6U

>  <pose_rank>  (14) 
13

>  <num_atoms_heavy>  (14) 
25

>  <num_torsions>  (14) 
5

>  <pose>  (14) 
[-26.509763985698825, 6.829999547022095, 0.08260354387873153, -0.13372361176913777, -0.7396979976863437, -1.5150839248188832, -2.557571937128865, 0.17044541281379078, 1.9471622477478758, 1.9889017947188374, 0.7262823154958025]

>  <energy>  (14) 
-676.9213671437129

>  <inter_energy>  (14) 
-675.0955852583095

>  <intra_energy>  (14) 
25.700449421142153

>  <rmsd>  (14) 
4.76023

>  <sdf_rank>  (14) 
0

$$$$

     RDKit          3D

 41 43  0  0  0  0  0  0  0  0999 V2000
  -31.9480    0.3838    0.0068 C   0  0  0  0  0  0  0  0  0  0  0  0
  -30.5032    0.0234    0.0569 C   0  0  0  0  0  0  0  0  0  0  0  0
  -30.1238   -1.4122    0.0404 C   0  0  0  0  0  0  0  0  0  0  0  0
  -31.2015   -2.4429   -0.0712 C   0  0  0  0  0  0  0  0  0  0  0  0
  -32.6258   -2.0601   -0.1333 C   0  0  0  0  0  0  0  0  0  0  0  0
  -33.0216   -0.6552   -0.0915 C   0  0  0  0  0  0  0  0  0  0  0  0
  -27.3694   -1.2456    4.2102 C   0  0  0  0  0  0  0  0  0  0  0  0
  -26.9696    5.1960    1.4807 C   0  0  0  0  0  0  0  0  0  0  0  0
  -27.5677    4.0054    1.8695 C   0  0  0  0  0  0  0  0  0  0  0  0
  -26.9210    2.8036    1.4765 C   0  0  0  0  0  0  0  0  0  0  0  0
  -25.2055    4.1363    0.3521 C   0  0  0  0  0  0  0  0  0  0  0  0
  -27.4796    1.4940    1.9527 C   0  0  0  0  0  0  0  0  0  0  0  0
  -28.5123    0.7257    1.4137 C   0  0  0  0  0  0  0  0  0  0  0  0
  -28.6128   -0.3690    2.2115 C   0  0  0  0  0  0  0  0  0  0  0  0
  -29.4234    1.0633    0.2100 C   0  0  0  0  0  0  0  0  0  0  0  0
  -32.4223    1.7932   -0.0332 C   0  0  0  0  0  0  0  0  0  0  0  0
  -31.8333    3.5516    1.4700 C   0  0  0  0  0  0  0  0  0  0  0  0
  -25.8497    5.3255    0.7133 N   0  0  0  0  0  0  0  0  0  0  0  0
  -25.7454    2.8836    0.7441 N   0  0  0  0  0  0  0  0  0  0  0  0
  -27.6679   -0.2636    3.1727 N   0  0  0  0  0  0  0  0  0  0  0  0
  -26.9482    0.8862    2.9871 N   0  0  0  0  0  0  0  0  0  0  0  0
  -24.0135    4.2699   -0.3846 N   0  0  0  0  0  0  0  0  0  0  0  0
  -31.4858    2.7840    0.3437 O   0  0  0  0  0  0  0  0  0  0  0  0
  -33.5123    2.0127   -0.3107 O   0  0  0  0  0  0  0  0  0  0  0  0
  -27.8356    6.6585    1.8860 Cl  0  0  0  0  0  0  0  0  0  0  0  0
  -29.0678   -1.7124    0.1091 H   0  0  0  0  0  0  0  0  0  0  0  0
  -30.9275   -3.5075   -0.1078 H   0  0  0  0  0  0  0  0  0  0  0  0
  -33.3966   -2.8409   -0.2118 H   0  0  0  0  0  0  0  0  0  0  0  0
  -34.0825   -0.3673   -0.1311 H   0  0  0  0  0  0  0  0  0  0  0  0
  -27.5088   -0.7869    5.2002 H   0  0  0  0  0  0  0  0  0  0  0  0
  -28.0464   -2.1063    4.1062 H   0  0  0  0  0  0  0  0  0  0  0  0
  -26.3278   -1.5837    4.1062 H   0  0  0  0  0  0  0  0  0  0  0  0
  -28.4990    3.9932    2.4547 H   0  0  0  0  0  0  0  0  0  0  0  0
  -29.3329   -1.1925    2.0963 H   0  0  0  0  0  0  0  0  0  0  0  0
  -28.8162    1.0922   -0.7067 H   0  0  0  0  0  0  0  0  0  0  0  0
  -29.8944    2.0420    0.3841 H   0  0  0  0  0  0  0  0  0  0  0  0
  -31.5814    2.9952    2.3849 H   0  0  0  0  0  0  0  0  0  0  0  0
  -31.2770    4.5004    1.4530 H   0  0  0  0  0  0  0  0  0  0  0  0
  -32.9134    3.7594    1.4530 H   0  0  0  0  0  0  0  0  0  0  0  0
  -23.4936    3.4311   -0.6796 H   0  0  0  0  0  0  0  0  0  0  0  0
  -23.6612    5.2065   -0.6287 H   0  0  0  0  0  0  0  0  0  0  0  0
  1  2  2  0
  1  6  1  0
  1 16  1  0
  2  3  1  0
  2 15  1  0
  3  4  2  0
  4  5  1  0
  5  6  2  0
  7 20  1  0
  8  9  2  0
  8 18  1  0
  8 25  1  0
  9 10  1  0
 10 12  1  0
 10 19  2  0
 11 18  2  0
 11 19  1  0
 11 22  1  0
 12 13  1  0
 12 21  2  0
 13 14  2  0
 13 15  1  0
 14 20  1  0
 16 23  1  0
 16 24  2  0
 17 23  1  0
 20 21  1  0
  3 26  1  0
  4 27  1  0
  5 28  1  0
  6 29  1  0
  7 30  1  0
  7 31  1  0
  7 32  1  0
  9 33  1  0
 14 34  1  0
 15 35  1  0
 15 36  1  0
 17 37  1  0
 17 38  1  0
 17 39  1  0
 22 40  1  0
 22 41  1  0
M  END
>  <filename_input>  (15) 
8CNH_V6U_docked.sdf

>  <pdb_id>  (15) 
8CNH_V6U

>  <pose_rank>  (15) 
14

>  <num_atoms_heavy>  (15) 
25

>  <num_torsions>  (15) 
5

>  <pose>  (15) 
[-27.36935849246886, -1.24558856388239, 4.210224397899169, -2.6709307481868776, -3.3941611333466555, -0.6488974142950448, -1.725581393941325, 1.5514723764546545, -5.756212451295214, -2.8432915763855866, 1.1731326588191036]

>  <energy>  (15) 
-714.7329495096387

>  <inter_energy>  (15) 
-763.660877923765

>  <intra_energy>  (15) 
52.73218672581746

>  <rmsd>  (15) 
3.97237

>  <sdf_rank>  (15) 
0

$$$$

     RDKit          3D

 41 43  0  0  0  0  0  0  0  0999 V2000
  -30.3109    4.0811    1.1737 C   0  0  0  0  0  0  0  0  0  0  0  0
  -30.2516    2.8021    1.9355 C   0  0  0  0  0  0  0  0  0  0  0  0
  -31.2489    1.7438    1.6343 C   0  0  0  0  0  0  0  0  0  0  0  0
  -32.2480    1.9814    0.5473 C   0  0  0  0  0  0  0  0  0  0  0  0
  -32.2780    3.2522   -0.2031 C   0  0  0  0  0  0  0  0  0  0  0  0
  -31.3233    4.3159    0.0957 C   0  0  0  0  0  0  0  0  0  0  0  0
  -24.5273    1.8887    1.4496 C   0  0  0  0  0  0  0  0  0  0  0  0
  -29.9318   -2.2066    3.3605 C   0  0  0  0  0  0  0  0  0  0  0  0
  -28.9749   -1.2012    3.3627 C   0  0  0  0  0  0  0  0  0  0  0  0
  -28.7360   -0.5394    2.1291 C   0  0  0  0  0  0  0  0  0  0  0  0
  -30.4046   -1.9824    1.0725 C   0  0  0  0  0  0  0  0  0  0  0  0
  -27.7780    0.6163    2.1035 C   0  0  0  0  0  0  0  0  0  0  0  0
  -27.9713    1.9335    2.5218 C   0  0  0  0  0  0  0  0  0  0  0  0
  -26.7922    2.5689    2.2965 C   0  0  0  0  0  0  0  0  0  0  0  0
  -29.2692    2.5830    3.0570 C   0  0  0  0  0  0  0  0  0  0  0  0
  -29.3246    5.1774    1.3686 C   0  0  0  0  0  0  0  0  0  0  0  0
  -28.2623    4.2810   -0.5721 C   0  0  0  0  0  0  0  0  0  0  0  0
  -30.6284   -2.6575    2.2782 N   0  0  0  0  0  0  0  0  0  0  0  0
  -29.4627   -0.9225    1.0111 N   0  0  0  0  0  0  0  0  0  0  0  0
  -25.9300    1.6629    1.7831 N   0  0  0  0  0  0  0  0  0  0  0  0
  -26.5441    0.4425    1.6926 N   0  0  0  0  0  0  0  0  0  0  0  0
  -31.1705   -2.4032   -0.0311 N   0  0  0  0  0  0  0  0  0  0  0  0
  -28.1934    5.1654    0.5195 O   0  0  0  0  0  0  0  0  0  0  0  0
  -29.4883    5.9392    2.2090 O   0  0  0  0  0  0  0  0  0  0  0  0
  -30.1358   -3.0758    4.8625 Cl  0  0  0  0  0  0  0  0  0  0  0  0
  -31.2526    0.8012    2.2011 H   0  0  0  0  0  0  0  0  0  0  0  0
  -32.9752    1.1933    0.3019 H   0  0  0  0  0  0  0  0  0  0  0  0
  -33.0269    3.3993   -0.9952 H   0  0  0  0  0  0  0  0  0  0  0  0
  -31.3473    5.2663   -0.4575 H   0  0  0  0  0  0  0  0  0  0  0  0
  -23.9409    1.9831    2.3755 H   0  0  0  0  0  0  0  0  0  0  0  0
  -24.1491    1.0399    0.8610 H   0  0  0  0  0  0  0  0  0  0  0  0
  -24.4346    2.8134    0.8610 H   0  0  0  0  0  0  0  0  0  0  0  0
  -28.4272   -0.9298    4.2772 H   0  0  0  0  0  0  0  0  0  0  0  0
  -26.5775    3.6292    2.4958 H   0  0  0  0  0  0  0  0  0  0  0  0
  -29.0256    3.5511    3.5190 H   0  0  0  0  0  0  0  0  0  0  0  0
  -29.7226    1.9112    3.8007 H   0  0  0  0  0  0  0  0  0  0  0  0
  -28.3428    3.2480   -0.2026 H   0  0  0  0  0  0  0  0  0  0  0  0
  -29.1444    4.5214   -1.1837 H   0  0  0  0  0  0  0  0  0  0  0  0
  -27.3536    4.3818   -1.1837 H   0  0  0  0  0  0  0  0  0  0  0  0
  -31.0510   -1.9449   -0.9457 H   0  0  0  0  0  0  0  0  0  0  0  0
  -31.8503   -3.1695    0.0761 H   0  0  0  0  0  0  0  0  0  0  0  0
  1  2  2  0
  1  6  1  0
  1 16  1  0
  2  3  1  0
  2 15  1  0
  3  4  2  0
  4  5  1  0
  5  6  2  0
  7 20  1  0
  8  9  2  0
  8 18  1  0
  8 25  1  0
  9 10  1  0
 10 12  1  0
 10 19  2  0
 11 18  2  0
 11 19  1  0
 11 22  1  0
 12 13  1  0
 12 21  2  0
 13 14  2  0
 13 15  1  0
 14 20  1  0
 16 23  1  0
 16 24  2  0
 17 23  1  0
 20 21  1  0
  3 26  1  0
  4 27  1  0
  5 28  1  0
  6 29  1  0
  7 30  1  0
  7 31  1  0
  7 32  1  0
  9 33  1  0
 14 34  1  0
 15 35  1  0
 15 36  1  0
 17 37  1  0
 17 38  1  0
 17 39  1  0
 22 40  1  0
 22 41  1  0
M  END
>  <filename_input>  (16) 
8CNH_V6U_docked.sdf

>  <pdb_id>  (16) 
8CNH_V6U

>  <pose_rank>  (16) 
15

>  <num_atoms_heavy>  (16) 
25

>  <num_torsions>  (16) 
5

>  <pose>  (16) 
[-24.52727811564593, 1.8887303959352437, 1.4496121055640294, 0.7377976758013053, -1.1125016039179032, 3.3322036840436313, 1.7374398195679839, -2.975552371586625, -3.277875794415406, -0.9423145913238921, -2.837869564701663]

>  <energy>  (16) 
-652.2125341827214

>  <inter_energy>  (16) 
-633.3560586492757

>  <intra_energy>  (16) 
28.446266876695056

>  <rmsd>  (16) 
6.82802

>  <sdf_rank>  (16) 
0

$$$$

     RDKit          3D

 41 43  0  0  0  0  0  0  0  0999 V2000
  -30.8651    3.4426    0.8701 C   0  0  0  0  0  0  0  0  0  0  0  0
  -30.0356    2.2576    0.5129 C   0  0  0  0  0  0  0  0  0  0  0  0
  -28.5593    2.4083    0.4604 C   0  0  0  0  0  0  0  0  0  0  0  0
  -27.9553    3.7306    0.8112 C   0  0  0  0  0  0  0  0  0  0  0  0
  -28.7978    4.8866    1.1754 C   0  0  0  0  0  0  0  0  0  0  0  0
  -30.2527    4.7668    1.2071 C   0  0  0  0  0  0  0  0  0  0  0  0
  -27.1738   -1.7669    2.6000 C   0  0  0  0  0  0  0  0  0  0  0  0
  -32.3228   -3.9278   -1.3064 C   0  0  0  0  0  0  0  0  0  0  0  0
  -31.1966   -3.2579   -0.8490 C   0  0  0  0  0  0  0  0  0  0  0  0
  -31.3980   -2.2759    0.1571 C   0  0  0  0  0  0  0  0  0  0  0  0
  -33.7971   -2.7478    0.0874 C   0  0  0  0  0  0  0  0  0  0  0  0
  -30.1996   -1.5918    0.7485 C   0  0  0  0  0  0  0  0  0  0  0  0
  -29.8811   -0.2334    0.7746 C   0  0  0  0  0  0  0  0  0  0  0  0
  -28.7001   -0.1441    1.4394 C   0  0  0  0  0  0  0  0  0  0  0  0
  -30.6504    0.9388    0.1211 C   0  0  0  0  0  0  0  0  0  0  0  0
  -32.3456    3.3763    0.9985 C   0  0  0  0  0  0  0  0  0  0  0  0
  -33.9293    1.7523    0.2549 C   0  0  0  0  0  0  0  0  0  0  0  0
  -33.6113   -3.6993   -0.9223 N   0  0  0  0  0  0  0  0  0  0  0  0
  -32.6847   -2.0482    0.6234 N   0  0  0  0  0  0  0  0  0  0  0  0
  -28.3418   -1.3945    1.8080 N   0  0  0  0  0  0  0  0  0  0  0  0
  -29.2958   -2.2868    1.3979 N   0  0  0  0  0  0  0  0  0  0  0  0
  -35.1193   -2.5573    0.5313 N   0  0  0  0  0  0  0  0  0  0  0  0
  -33.0462    2.7936   -0.0833 O   0  0  0  0  0  0  0  0  0  0  0  0
  -32.8519    3.8327    1.9198 O   0  0  0  0  0  0  0  0  0  0  0  0
  -32.0659   -5.0570   -2.6150 Cl  0  0  0  0  0  0  0  0  0  0  0  0
  -27.9207    1.5616    0.1683 H   0  0  0  0  0  0  0  0  0  0  0  0
  -26.8612    3.8441    0.7976 H   0  0  0  0  0  0  0  0  0  0  0  0
  -28.3250    5.8478    1.4255 H   0  0  0  0  0  0  0  0  0  0  0  0
  -30.8834    5.6282    1.4720 H   0  0  0  0  0  0  0  0  0  0  0  0
  -27.4166   -1.6895    3.6700 H   0  0  0  0  0  0  0  0  0  0  0  0
  -26.8851   -2.8016    2.3634 H   0  0  0  0  0  0  0  0  0  0  0  0
  -26.3395   -1.0902    2.3634 H   0  0  0  0  0  0  0  0  0  0  0  0
  -30.1949   -3.4773   -1.2470 H   0  0  0  0  0  0  0  0  0  0  0  0
  -28.1369    0.7789    1.6415 H   0  0  0  0  0  0  0  0  0  0  0  0
  -31.6983    0.9147    0.4545 H   0  0  0  0  0  0  0  0  0  0  0  0
  -30.5977    0.8329   -0.9726 H   0  0  0  0  0  0  0  0  0  0  0  0
  -33.9982    1.6710    1.3497 H   0  0  0  0  0  0  0  0  0  0  0  0
  -34.9251    1.9666   -0.1603 H   0  0  0  0  0  0  0  0  0  0  0  0
  -33.5550    0.8048   -0.1603 H   0  0  0  0  0  0  0  0  0  0  0  0
  -35.3199   -1.8707    1.2724 H   0  0  0  0  0  0  0  0  0  0  0  0
  -35.8862   -3.1045    0.1149 H   0  0  0  0  0  0  0  0  0  0  0  0
  1  2  2  0
  1  6  1  0
  1 16  1  0
  2  3  1  0
  2 15  1  0
  3  4  2  0
  4  5  1  0
  5  6  2  0
  7 20  1  0
  8  9  2  0
  8 18  1  0
  8 25  1  0
  9 10  1  0
 10 12  1  0
 10 19  2  0
 11 18  2  0
 11 19  1  0
 11 22  1  0
 12 13  1  0
 12 21  2  0
 13 14  2  0
 13 15  1  0
 14 20  1  0
 16 23  1  0
 16 24  2  0
 17 23  1  0
 20 21  1  0
  3 26  1  0
  4 27  1  0
  5 28  1  0
  6 29  1  0
  7 30  1  0
  7 31  1  0
  7 32  1  0
  9 33  1  0
 14 34  1  0
 15 35  1  0
 15 36  1  0
 17 37  1  0
 17 38  1  0
 17 39  1  0
 22 40  1  0
 22 41  1  0
M  END
>  <filename_input>  (17) 
8CNH_V6U_docked.sdf

>  <pdb_id>  (17) 
8CNH_V6U

>  <pose_rank>  (17) 
16

>  <num_atoms_heavy>  (17) 
25

>  <num_torsions>  (17) 
5

>  <pose>  (17) 
[-27.17382296315184, -1.766862594321688, 2.599964147574072, 0.6099222195260448, 0.2892002720086096, -2.9218579597056458, 5.199854688972303, -4.937071294551554, -4.081457183692251, 2.8448593713794352, -0.8297301758649371]

>  <energy>  (17) 
-626.1131008462388

>  <inter_energy>  (17) 
-670.2524407947819

>  <intra_energy>  (17) 
48.73710192916482

>  <rmsd>  (17) 
7.53666

>  <sdf_rank>  (17) 
0

$$$$

     RDKit          3D

 41 43  0  0  0  0  0  0  0  0999 V2000
  -29.0509   -0.4449    1.4317 C   0  0  0  0  0  0  0  0  0  0  0  0
  -27.9466    0.5458    1.2945 C   0  0  0  0  0  0  0  0  0  0  0  0
  -26.9858    0.7048    2.4155 C   0  0  0  0  0  0  0  0  0  0  0  0
  -27.1336   -0.1656    3.6224 C   0  0  0  0  0  0  0  0  0  0  0  0
  -28.2284   -1.1500    3.7291 C   0  0  0  0  0  0  0  0  0  0  0  0
  -29.1996   -1.3033    2.6495 C   0  0  0  0  0  0  0  0  0  0  0  0
  -26.2557    6.0904    1.3360 C   0  0  0  0  0  0  0  0  0  0  0  0
  -32.3478    2.7170   -0.1139 C   0  0  0  0  0  0  0  0  0  0  0  0
  -31.0197    3.1067   -0.2167 C   0  0  0  0  0  0  0  0  0  0  0  0
  -30.3379    3.3901    0.9965 C   0  0  0  0  0  0  0  0  0  0  0  0
  -32.3912    2.8865    2.2267 C   0  0  0  0  0  0  0  0  0  0  0  0
  -28.8754    3.7248    0.9416 C   0  0  0  0  0  0  0  0  0  0  0  0
  -27.8024    2.9323    0.5317 C   0  0  0  0  0  0  0  0  0  0  0  0
  -26.6974    3.7113    0.6619 C   0  0  0  0  0  0  0  0  0  0  0  0
  -27.8256    1.4487    0.0941 C   0  0  0  0  0  0  0  0  0  0  0  0
  -30.0297   -0.7111    0.3436 C   0  0  0  0  0  0  0  0  0  0  0  0
  -31.0220    0.1221   -1.6613 C   0  0  0  0  0  0  0  0  0  0  0  0
  -33.0784    2.6298    1.0344 N   0  0  0  0  0  0  0  0  0  0  0  0
  -31.0219    3.2587    2.1963 N   0  0  0  0  0  0  0  0  0  0  0  0
  -27.0996    4.9207    1.1128 N   0  0  0  0  0  0  0  0  0  0  0  0
  -28.4610    4.9291    1.2574 N   0  0  0  0  0  0  0  0  0  0  0  0
  -33.1263    2.7335    3.4173 N   0  0  0  0  0  0  0  0  0  0  0  0
  -30.4609    0.4097   -0.4039 O   0  0  0  0  0  0  0  0  0  0  0  0
  -30.4248   -1.7758    0.1897 O   0  0  0  0  0  0  0  0  0  0  0  0
  -33.1955    2.4732   -1.6223 Cl  0  0  0  0  0  0  0  0  0  0  0  0
  -26.1790    1.4504    2.3590 H   0  0  0  0  0  0  0  0  0  0  0  0
  -26.4120   -0.0705    4.4472 H   0  0  0  0  0  0  0  0  0  0  0  0
  -28.3136   -1.7741    4.6309 H   0  0  0  0  0  0  0  0  0  0  0  0
  -30.0202   -2.0315    2.7289 H   0  0  0  0  0  0  0  0  0  0  0  0
  -26.1365    6.2556    2.4170 H   0  0  0  0  0  0  0  0  0  0  0  0
  -25.2689    5.9231    0.8797 H   0  0  0  0  0  0  0  0  0  0  0  0
  -26.7257    6.9741    0.8797 H   0  0  0  0  0  0  0  0  0  0  0  0
  -30.5186    3.1920   -1.1922 H   0  0  0  0  0  0  0  0  0  0  0  0
  -25.6623    3.4121    0.4405 H   0  0  0  0  0  0  0  0  0  0  0  0
  -26.8941    1.2150   -0.4422 H   0  0  0  0  0  0  0  0  0  0  0  0
  -28.6927    1.2852   -0.5627 H   0  0  0  0  0  0  0  0  0  0  0  0
  -31.9933   -0.3757   -1.5242 H   0  0  0  0  0  0  0  0  0  0  0  0
  -31.1654    1.0579   -2.2215 H   0  0  0  0  0  0  0  0  0  0  0  0
  -30.3461   -0.5407   -2.2215 H   0  0  0  0  0  0  0  0  0  0  0  0
  -32.6757    2.9081    4.3269 H   0  0  0  0  0  0  0  0  0  0  0  0
  -34.1149    2.4469    3.3789 H   0  0  0  0  0  0  0  0  0  0  0  0
  1  2  2  0
  1  6  1  0
  1 16  1  0
  2  3  1  0
  2 15  1  0
  3  4  2  0
  4  5  1  0
  5  6  2  0
  7 20  1  0
  8  9  2  0
  8 18  1  0
  8 25  1  0
  9 10  1  0
 10 12  1  0
 10 19  2  0
 11 18  2  0
 11 19  1  0
 11 22  1  0
 12 13  1  0
 12 21  2  0
 13 14  2  0
 13 15  1  0
 14 20  1  0
 16 23  1  0
 16 24  2  0
 17 23  1  0
 20 21  1  0
  3 26  1  0
  4 27  1  0
  5 28  1  0
  6 29  1  0
  7 30  1  0
  7 31  1  0
  7 32  1  0
  9 33  1  0
 14 34  1  0
 15 35  1  0
 15 36  1  0
 17 37  1  0
 17 38  1  0
 17 39  1  0
 22 40  1  0
 22 41  1  0
M  END
>  <filename_input>  (18) 
8CNH_V6U_docked.sdf

>  <pdb_id>  (18) 
8CNH_V6U

>  <pose_rank>  (18) 
17

>  <num_atoms_heavy>  (18) 
25

>  <num_torsions>  (18) 
5

>  <pose>  (18) 
[-26.25573023198995, 6.090384129083303, 1.3360428795328467, 0.8667178299120183, -2.796688412836958, -1.053326326303165, 1.9744753228776324, 3.2512255551444182, 0.4850125722308498, 3.060817139386816, -0.2478106561316608]

>  <energy>  (18) 
-578.0979521592222

>  <inter_energy>  (18) 
-655.2099276533004

>  <intra_energy>  (18) 
76.67596194980307

>  <rmsd>  (18) 
4.48649

>  <sdf_rank>  (18) 
0

$$$$

     RDKit          3D

 41 43  0  0  0  0  0  0  0  0999 V2000
  -28.8466   -1.0878    3.6526 C   0  0  0  0  0  0  0  0  0  0  0  0
  -29.0890   -0.5293    2.2928 C   0  0  0  0  0  0  0  0  0  0  0  0
  -29.4711   -1.4561    1.1972 C   0  0  0  0  0  0  0  0  0  0  0  0
  -29.6427   -2.9089    1.5071 C   0  0  0  0  0  0  0  0  0  0  0  0
  -29.4100   -3.4363    2.8660 C   0  0  0  0  0  0  0  0  0  0  0  0
  -29.0077   -2.5461    3.9513 C   0  0  0  0  0  0  0  0  0  0  0  0
  -23.8405    0.4881    1.9065 C   0  0  0  0  0  0  0  0  0  0  0  0
  -27.1691    6.2555    1.7884 C   0  0  0  0  0  0  0  0  0  0  0  0
  -26.5516    5.0194    1.9193 C   0  0  0  0  0  0  0  0  0  0  0  0
  -27.3905    3.8744    1.8733 C   0  0  0  0  0  0  0  0  0  0  0  0
  -29.3250    5.3465    1.6025 C   0  0  0  0  0  0  0  0  0  0  0  0
  -26.7579    2.5136    1.9172 C   0  0  0  0  0  0  0  0  0  0  0  0
  -27.3648    1.2571    1.9267 C   0  0  0  0  0  0  0  0  0  0  0  0
  -26.3484    0.3566    1.9566 C   0  0  0  0  0  0  0  0  0  0  0  0
  -28.8757    0.9285    1.9762 C   0  0  0  0  0  0  0  0  0  0  0  0
  -28.5108   -0.2330    4.8228 C   0  0  0  0  0  0  0  0  0  0  0  0
  -26.5410    0.6488    5.8430 C   0  0  0  0  0  0  0  0  0  0  0  0
  -28.5089    6.4818    1.6723 N   0  0  0  0  0  0  0  0  0  0  0  0
  -28.7554    4.0501    1.6973 N   0  0  0  0  0  0  0  0  0  0  0  0
  -25.1872    1.0489    1.9471 N   0  0  0  0  0  0  0  0  0  0  0  0
  -25.4517    2.3912    1.8940 N   0  0  0  0  0  0  0  0  0  0  0  0
  -30.7013    5.5765    1.4171 N   0  0  0  0  0  0  0  0  0  0  0  0
  -27.3583    0.5780    4.7004 O   0  0  0  0  0  0  0  0  0  0  0  0
  -29.1508   -0.2999    5.7711 O   0  0  0  0  0  0  0  0  0  0  0  0
  -26.1325    7.6528    1.9507 Cl  0  0  0  0  0  0  0  0  0  0  0  0
  -29.6252   -1.0802    0.1750 H   0  0  0  0  0  0  0  0  0  0  0  0
  -29.9484   -3.5984    0.7064 H   0  0  0  0  0  0  0  0  0  0  0  0
  -29.5409   -4.5106    3.0630 H   0  0  0  0  0  0  0  0  0  0  0  0
  -28.8275   -2.9373    4.9635 H   0  0  0  0  0  0  0  0  0  0  0  0
  -23.4755    0.3361    2.9330 H   0  0  0  0  0  0  0  0  0  0  0  0
  -23.8607   -0.4764    1.3779 H   0  0  0  0  0  0  0  0  0  0  0  0
  -23.1701    1.1819    1.3779 H   0  0  0  0  0  0  0  0  0  0  0  0
  -25.4633    4.9308    2.0524 H   0  0  0  0  0  0  0  0  0  0  0  0
  -26.4514   -0.7383    1.9838 H   0  0  0  0  0  0  0  0  0  0  0  0
  -29.3279    1.1568    0.9998 H   0  0  0  0  0  0  0  0  0  0  0  0
  -29.3460    1.5359    2.7635 H   0  0  0  0  0  0  0  0  0  0  0  0
  -27.1672    0.5945    6.7457 H   0  0  0  0  0  0  0  0  0  0  0  0
  -25.8308   -0.1912    5.8385 H   0  0  0  0  0  0  0  0  0  0  0  0
  -25.9858    1.5984    5.8385 H   0  0  0  0  0  0  0  0  0  0  0  0
  -31.3530    4.7811    1.3579 H   0  0  0  0  0  0  0  0  0  0  0  0
  -31.0567    6.5403    1.3406 H   0  0  0  0  0  0  0  0  0  0  0  0
  1  2  2  0
  1  6  1  0
  1 16  1  0
  2  3  1  0
  2 15  1  0
  3  4  2  0
  4  5  1  0
  5  6  2  0
  7 20  1  0
  8  9  2  0
  8 18  1  0
  8 25  1  0
  9 10  1  0
 10 12  1  0
 10 19  2  0
 11 18  2  0
 11 19  1  0
 11 22  1  0
 12 13  1  0
 12 21  2  0
 13 14  2  0
 13 15  1  0
 14 20  1  0
 16 23  1  0
 16 24  2  0
 17 23  1  0
 20 21  1  0
  3 26  1  0
  4 27  1  0
  5 28  1  0
  6 29  1  0
  7 30  1  0
  7 31  1  0
  7 32  1  0
  9 33  1  0
 14 34  1  0
 15 35  1  0
 15 36  1  0
 17 37  1  0
 17 38  1  0
 17 39  1  0
 22 40  1  0
 22 41  1  0
M  END
>  <filename_input>  (19) 
8CNH_V6U_docked.sdf

>  <pdb_id>  (19) 
8CNH_V6U

>  <pose_rank>  (19) 
18

>  <num_atoms_heavy>  (19) 
25

>  <num_torsions>  (19) 
5

>  <pose>  (19) 
[-23.84046081473204, 0.4881284429164405, 1.906483078017716, 1.0607098460660724, 2.6936311015590793, 0.38509189021253654, -0.09142029894825146, 1.676377939959763, -0.39993830624602705, 2.7241855289181114, 0.8156650716745549]

>  <energy>  (19) 
-464.0679770954589

>  <inter_energy>  (19) 
-513.2488226391581

>  <intra_energy>  (19) 
57.60071891228356

>  <rmsd>  (19) 
4.70885

>  <sdf_rank>  (19) 
0

$$$$

     RDKit          3D

 41 43  0  0  0  0  0  0  0  0999 V2000
  -31.3246    4.2021    1.3165 C   0  0  0  0  0  0  0  0  0  0  0  0
  -31.5371    2.8044    1.7869 C   0  0  0  0  0  0  0  0  0  0  0  0
  -32.9125    2.3710    2.1414 C   0  0  0  0  0  0  0  0  0  0  0  0
  -34.0408    3.3376    1.9711 C   0  0  0  0  0  0  0  0  0  0  0  0
  -33.8066    4.7133    1.4901 C   0  0  0  0  0  0  0  0  0  0  0  0
  -32.4584    5.1678    1.1616 C   0  0  0  0  0  0  0  0  0  0  0  0
  -29.8695   -0.1508   -2.6186 C   0  0  0  0  0  0  0  0  0  0  0  0
  -25.9227    4.1292    1.1257 C   0  0  0  0  0  0  0  0  0  0  0  0
  -26.9527    3.5129    0.4290 C   0  0  0  0  0  0  0  0  0  0  0  0
  -27.3187    2.2059    0.8469 C   0  0  0  0  0  0  0  0  0  0  0  0
  -25.5760    2.3044    2.5606 C   0  0  0  0  0  0  0  0  0  0  0  0
  -28.4881    1.5369    0.1845 C   0  0  0  0  0  0  0  0  0  0  0  0
  -29.8018    1.4039    0.6359 C   0  0  0  0  0  0  0  0  0  0  0  0
  -30.4616    0.7308   -0.3422 C   0  0  0  0  0  0  0  0  0  0  0  0
  -30.3923    1.8470    1.9953 C   0  0  0  0  0  0  0  0  0  0  0  0
  -29.9936    4.7114    0.8902 C   0  0  0  0  0  0  0  0  0  0  0  0
  -28.6134    5.3498    2.7304 C   0  0  0  0  0  0  0  0  0  0  0  0
  -25.1915    3.5827    2.1390 N   0  0  0  0  0  0  0  0  0  0  0  0
  -26.6432    1.6293    1.9129 N   0  0  0  0  0  0  0  0  0  0  0  0
  -29.5812    0.4904   -1.3397 N   0  0  0  0  0  0  0  0  0  0  0  0
  -28.3614    1.0208   -1.0152 N   0  0  0  0  0  0  0  0  0  0  0  0
  -24.8652    1.7651    3.6493 N   0  0  0  0  0  0  0  0  0  0  0  0
  -29.4404    5.7558    1.6674 O   0  0  0  0  0  0  0  0  0  0  0  0
  -29.5040    4.2858   -0.0545 O   0  0  0  0  0  0  0  0  0  0  0  0
  -25.4205    5.6931    0.5296 Cl  0  0  0  0  0  0  0  0  0  0  0  0
  -33.0982    1.3561    2.5228 H   0  0  0  0  0  0  0  0  0  0  0  0
  -35.0658    3.0170    2.2091 H   0  0  0  0  0  0  0  0  0  0  0  0
  -34.6562    5.4031    1.3781 H   0  0  0  0  0  0  0  0  0  0  0  0
  -32.2800    6.1943    0.8090 H   0  0  0  0  0  0  0  0  0  0  0  0
  -30.3147   -1.1408   -2.4402 H   0  0  0  0  0  0  0  0  0  0  0  0
  -30.5748    0.4708   -3.1897 H   0  0  0  0  0  0  0  0  0  0  0  0
  -28.9365   -0.2658   -3.1897 H   0  0  0  0  0  0  0  0  0  0  0  0
  -27.4619    4.0134   -0.4078 H   0  0  0  0  0  0  0  0  0  0  0  0
  -31.5209    0.4348   -0.3257 H   0  0  0  0  0  0  0  0  0  0  0  0
  -29.6082    2.3434    2.5858 H   0  0  0  0  0  0  0  0  0  0  0  0
  -30.7637    0.9592    2.5280 H   0  0  0  0  0  0  0  0  0  0  0  0
  -29.1014    5.5894    3.6867 H   0  0  0  0  0  0  0  0  0  0  0  0
  -28.4420    4.2651    2.6679 H   0  0  0  0  0  0  0  0  0  0  0  0
  -27.6503    5.8775    2.6679 H   0  0  0  0  0  0  0  0  0  0  0  0
  -25.1018    0.8281    4.0055 H   0  0  0  0  0  0  0  0  0  0  0  0
  -24.1084    2.3075    4.0897 H   0  0  0  0  0  0  0  0  0  0  0  0
  1  2  2  0
  1  6  1  0
  1 16  1  0
  2  3  1  0
  2 15  1  0
  3  4  2  0
  4  5  1  0
  5  6  2  0
  7 20  1  0
  8  9  2  0
  8 18  1  0
  8 25  1  0
  9 10  1  0
 10 12  1  0
 10 19  2  0
 11 18  2  0
 11 19  1  0
 11 22  1  0
 12 13  1  0
 12 21  2  0
 13 14  2  0
 13 15  1  0
 14 20  1  0
 16 23  1  0
 16 24  2  0
 17 23  1  0
 20 21  1  0
  3 26  1  0
  4 27  1  0
  5 28  1  0
  6 29  1  0
  7 30  1  0
  7 31  1  0
  7 32  1  0
  9 33  1  0
 14 34  1  0
 15 35  1  0
 15 36  1  0
 17 37  1  0
 17 38  1  0
 17 39  1  0
 22 40  1  0
 22 41  1  0
M  END
>  <filename_input>  (20) 
8CNH_V6U_docked.sdf

>  <pdb_id>  (20) 
8CNH_V6U

>  <pose_rank>  (20) 
19

>  <num_atoms_heavy>  (20) 
25

>  <num_torsions>  (20) 
5

>  <pose>  (20) 
[-29.8695420163816, -0.15083379051904383, -2.618551810337665, -2.0255385922297995, -1.1725847359493593, -0.5346089078425359, 1.3379440291250846, -5.844623244003735, -2.9194762342318956, 1.7025773227736916, -1.4532304101629117]

>  <energy>  (20) 
-525.94150235443

>  <inter_energy>  (20) 
-593.0021932282034

>  <intra_energy>  (20) 
84.43420698758024

>  <rmsd>  (20) 
5.14962

>  <sdf_rank>  (20) 
0

$$$$

     RDKit          3D

 41 43  0  0  0  0  0  0  0  0999 V2000
  -30.0221    4.0236    1.3944 C   0  0  0  0  0  0  0  0  0  0  0  0
  -29.3776    2.9297    2.1741 C   0  0  0  0  0  0  0  0  0  0  0  0
  -30.1970    2.1715    3.1533 C   0  0  0  0  0  0  0  0  0  0  0  0
  -31.6489    2.5022    3.2898 C   0  0  0  0  0  0  0  0  0  0  0  0
  -32.2679    3.5818    2.4959 C   0  0  0  0  0  0  0  0  0  0  0  0
  -31.4739    4.3571    1.5470 C   0  0  0  0  0  0  0  0  0  0  0  0
  -25.8375   -1.7930    3.3810 C   0  0  0  0  0  0  0  0  0  0  0  0
  -31.8096   -0.8610    0.4452 C   0  0  0  0  0  0  0  0  0  0  0  0
  -30.6100   -0.9664    1.1352 C   0  0  0  0  0  0  0  0  0  0  0  0
  -29.6597    0.0694    0.9330 C   0  0  0  0  0  0  0  0  0  0  0  0
  -31.2132    1.1424   -0.6223 C   0  0  0  0  0  0  0  0  0  0  0  0
  -28.3867    0.0468    1.7284 C   0  0  0  0  0  0  0  0  0  0  0  0
  -27.6482    1.1126    2.2443 C   0  0  0  0  0  0  0  0  0  0  0  0
  -26.5946    0.5518    2.8925 C   0  0  0  0  0  0  0  0  0  0  0  0
  -27.9056    2.6271    2.0626 C   0  0  0  0  0  0  0  0  0  0  0  0
  -29.2970    4.8031    0.3555 C   0  0  0  0  0  0  0  0  0  0  0  0
  -27.3157    5.9690   -0.2877 C   0  0  0  0  0  0  0  0  0  0  0  0
  -32.1455    0.1126   -0.4487 N   0  0  0  0  0  0  0  0  0  0  0  0
  -29.9787    1.1140    0.0773 N   0  0  0  0  0  0  0  0  0  0  0  0
  -26.7125   -0.7904    2.7815 N   0  0  0  0  0  0  0  0  0  0  0  0
  -27.8469   -1.0966    2.0788 N   0  0  0  0  0  0  0  0  0  0  0  0
  -31.5855    2.1822   -1.4950 N   0  0  0  0  0  0  0  0  0  0  0  0
  -27.9373    5.0909    0.6186 O   0  0  0  0  0  0  0  0  0  0  0  0
  -29.8645    5.1741   -0.5684 O   0  0  0  0  0  0  0  0  0  0  0  0
  -32.9210   -2.1968    0.6289 Cl  0  0  0  0  0  0  0  0  0  0  0  0
  -29.7435    1.3799    3.7679 H   0  0  0  0  0  0  0  0  0  0  0  0
  -32.2681    1.9295    3.9959 H   0  0  0  0  0  0  0  0  0  0  0  0
  -33.3379    3.8044    2.6203 H   0  0  0  0  0  0  0  0  0  0  0  0
  -31.9310    5.1664    0.9586 H   0  0  0  0  0  0  0  0  0  0  0  0
  -25.8978   -1.7239    4.4772 H   0  0  0  0  0  0  0  0  0  0  0  0
  -26.1544   -2.7959    3.0588 H   0  0  0  0  0  0  0  0  0  0  0  0
  -24.8010   -1.6147    3.0588 H   0  0  0  0  0  0  0  0  0  0  0  0
  -30.4048   -1.8127    1.8072 H   0  0  0  0  0  0  0  0  0  0  0  0
  -25.7906    1.0922    3.4137 H   0  0  0  0  0  0  0  0  0  0  0  0
  -27.5461    2.9389    1.0708 H   0  0  0  0  0  0  0  0  0  0  0  0
  -27.3690    3.1760    2.8505 H   0  0  0  0  0  0  0  0  0  0  0  0
  -26.7677    6.7432    0.2693 H   0  0  0  0  0  0  0  0  0  0  0  0
  -26.6137    5.4063   -0.9205 H   0  0  0  0  0  0  0  0  0  0  0  0
  -28.0798    6.4442   -0.9205 H   0  0  0  0  0  0  0  0  0  0  0  0
  -30.9418    2.9683   -1.6637 H   0  0  0  0  0  0  0  0  0  0  0  0
  -32.5017    2.1568   -1.9650 H   0  0  0  0  0  0  0  0  0  0  0  0
  1  2  2  0
  1  6  1  0
  1 16  1  0
  2  3  1  0
  2 15  1  0
  3  4  2  0
  4  5  1  0
  5  6  2  0
  7 20  1  0
  8  9  2  0
  8 18  1  0
  8 25  1  0
  9 10  1  0
 10 12  1  0
 10 19  2  0
 11 18  2  0
 11 19  1  0
 11 22  1  0
 12 13  1  0
 12 21  2  0
 13 14  2  0
 13 15  1  0
 14 20  1  0
 16 23  1  0
 16 24  2  0
 17 23  1  0
 20 21  1  0
  3 26  1  0
  4 27  1  0
  5 28  1  0
  6 29  1  0
  7 30  1  0
  7 31  1  0
  7 32  1  0
  9 33  1  0
 14 34  1  0
 15 35  1  0
 15 36  1  0
 17 37  1  0
 17 38  1  0
 17 39  1  0
 22 40  1  0
 22 41  1  0
M  END
>  <filename_input>  (21) 
8CNH_V6U_docked.sdf

>  <pdb_id>  (21) 
8CNH_V6U

>  <pose_rank>  (21) 
20

>  <num_atoms_heavy>  (21) 
25

>  <num_torsions>  (21) 
5

>  <pose>  (21) 
[-25.837539016575867, -1.792958536950856, 3.380977276287313, 0.8823537352600409, 0.7989954168699795, -3.1970753326762633, 0.562192753790898, -0.9708529756555764, 2.047776507586351, 3.091529042469925, 0.23062529880117497]

>  <energy>  (21) 
-631.582034761706

>  <inter_energy>  (21) 
-695.417472622681

>  <intra_energy>  (21) 
100.15497192618577

>  <rmsd>  (21) 
6.6776

>  <sdf_rank>  (21) 
0

$$$$

     RDKit          3D

 41 43  0  0  0  0  0  0  0  0999 V2000
  -28.7377    4.3255    1.1083 C   0  0  0  0  0  0  0  0  0  0  0  0
  -27.9374    3.3926    1.9504 C   0  0  0  0  0  0  0  0  0  0  0  0
  -26.4556    3.4653    1.8870 C   0  0  0  0  0  0  0  0  0  0  0  0
  -25.8198    4.5008    1.0155 C   0  0  0  0  0  0  0  0  0  0  0  0
  -26.6347    5.4233    0.2006 C   0  0  0  0  0  0  0  0  0  0  0  0
  -28.0928    5.3508    0.2280 C   0  0  0  0  0  0  0  0  0  0  0  0
  -25.1793   -1.4100    2.6233 C   0  0  0  0  0  0  0  0  0  0  0  0
  -31.8834    0.4989    0.5682 C   0  0  0  0  0  0  0  0  0  0  0  0
  -30.6479    0.7387    1.1533 C   0  0  0  0  0  0  0  0  0  0  0  0
  -29.8127   -0.3884    1.3749 C   0  0  0  0  0  0  0  0  0  0  0  0
  -31.5562   -1.8212    0.4313 C   0  0  0  0  0  0  0  0  0  0  0  0
  -28.4312   -0.1674    1.9192 C   0  0  0  0  0  0  0  0  0  0  0  0
  -27.9007    0.9569    2.5532 C   0  0  0  0  0  0  0  0  0  0  0  0
  -26.6171    0.6360    2.8603 C   0  0  0  0  0  0  0  0  0  0  0  0
  -28.5816    2.3245    2.7959 C   0  0  0  0  0  0  0  0  0  0  0  0
  -30.2244    4.3626    1.1429 C   0  0  0  0  0  0  0  0  0  0  0  0
  -31.9308    4.8986    2.7238 C   0  0  0  0  0  0  0  0  0  0  0  0
  -32.3964   -0.7193    0.2326 N   0  0  0  0  0  0  0  0  0  0  0  0
  -30.2663   -1.6436    0.9960 N   0  0  0  0  0  0  0  0  0  0  0  0
  -26.4004   -0.6314    2.4424 N   0  0  0  0  0  0  0  0  0  0  0  0
  -27.5444   -1.1338    1.8827 N   0  0  0  0  0  0  0  0  0  0  0  0
  -32.0588   -3.0718    0.0251 N   0  0  0  0  0  0  0  0  0  0  0  0
  -30.8108    5.3311    1.9908 O   0  0  0  0  0  0  0  0  0  0  0  0
  -30.8210    3.5937    0.5378 O   0  0  0  0  0  0  0  0  0  0  0  0
  -32.9349    1.8843    0.3993 Cl  0  0  0  0  0  0  0  0  0  0  0  0
  -25.8360    2.7690    2.4713 H   0  0  0  0  0  0  0  0  0  0  0  0
  -24.7230    4.5767    0.9809 H   0  0  0  0  0  0  0  0  0  0  0  0
  -26.1385    6.1727   -0.4337 H   0  0  0  0  0  0  0  0  0  0  0  0
  -28.7025    6.0327   -0.3830 H   0  0  0  0  0  0  0  0  0  0  0  0
  -24.9809   -1.5366    3.6978 H   0  0  0  0  0  0  0  0  0  0  0  0
  -25.3013   -2.3975    2.1542 H   0  0  0  0  0  0  0  0  0  0  0  0
  -24.3355   -0.8830    2.1542 H   0  0  0  0  0  0  0  0  0  0  0  0
  -30.3304    1.7542    1.4324 H   0  0  0  0  0  0  0  0  0  0  0  0
  -25.8860    1.2894    3.3589 H   0  0  0  0  0  0  0  0  0  0  0  0
  -28.4828    2.5947    3.8576 H   0  0  0  0  0  0  0  0  0  0  0  0
  -29.6440    2.2464    2.5216 H   0  0  0  0  0  0  0  0  0  0  0  0
  -31.7186    4.9806    3.8000 H   0  0  0  0  0  0  0  0  0  0  0  0
  -32.7983    5.5265    2.4723 H   0  0  0  0  0  0  0  0  0  0  0  0
  -32.1513    3.8507    2.4723 H   0  0  0  0  0  0  0  0  0  0  0  0
  -31.4873   -3.9202    0.1454 H   0  0  0  0  0  0  0  0  0  0  0  0
  -32.9980   -3.1384   -0.3924 H   0  0  0  0  0  0  0  0  0  0  0  0
  1  2  2  0
  1  6  1  0
  1 16  1  0
  2  3  1  0
  2 15  1  0
  3  4  2  0
  4  5  1  0
  5  6  2  0
  7 20  1  0
  8  9  2  0
  8 18  1  0
  8 25  1  0
  9 10  1  0
 10 12  1  0
 10 19  2  0
 11 18  2  0
 11 19  1  0
 11 22  1  0
 12 13  1  0
 12 21  2  0
 13 14  2  0
 13 15  1  0
 14 20  1  0
 16 23  1  0
 16 24  2  0
 17 23  1  0
 20 21  1  0
  3 26  1  0
  4 27  1  0
  5 28  1  0
  6 29  1  0
  7 30  1  0
  7 31  1  0
  7 32  1  0
  9 33  1  0
 14 34  1  0
 15 35  1  0
 15 36  1  0
 17 37  1  0
 17 38  1  0
 17 39  1  0
 22 40  1  0
 22 41  1  0
M  END
>  <filename_input>  (22) 
8CNH_V6U_docked.sdf

>  <pdb_id>  (22) 
8CNH_V6U

>  <pose_rank>  (22) 
21

>  <num_atoms_heavy>  (22) 
25

>  <num_torsions>  (22) 
5

>  <pose>  (22) 
[-25.179344222240296, -1.4100346075445578, 2.623303967626107, 0.35070436554035334, 1.1473928045718707, -3.0071737104998597, 3.3825122315089016, 2.6525882607270352, 0.6089482749230888, -0.8828074149927501, 0.8136283629595028]

>  <energy>  (22) 
-549.1580364960678

>  <inter_energy>  (22) 
-623.1140729938943

>  <intra_energy>  (22) 
71.5905814508661

>  <rmsd>  (22) 
6.69165

>  <sdf_rank>  (22) 
0

$$$$

     RDKit          3D

 41 43  0  0  0  0  0  0  0  0999 V2000
  -27.4471    3.8900    1.5197 C   0  0  0  0  0  0  0  0  0  0  0  0
  -26.9531    2.6776    0.8085 C   0  0  0  0  0  0  0  0  0  0  0  0
  -25.6233    2.1268    1.1739 C   0  0  0  0  0  0  0  0  0  0  0  0
  -24.8476    2.7809    2.2723 C   0  0  0  0  0  0  0  0  0  0  0  0
  -25.3646    3.9736    2.9717 C   0  0  0  0  0  0  0  0  0  0  0  0
  -26.6578    4.5468    2.6095 C   0  0  0  0  0  0  0  0  0  0  0  0
  -32.6819    1.2025    0.1422 C   0  0  0  0  0  0  0  0  0  0  0  0
  -26.8779    0.2991    4.0915 C   0  0  0  0  0  0  0  0  0  0  0  0
  -27.6888    0.9296    3.1582 C   0  0  0  0  0  0  0  0  0  0  0  0
  -28.3927    0.0944    2.2506 C   0  0  0  0  0  0  0  0  0  0  0  0
  -27.3667   -1.8584    3.3074 C   0  0  0  0  0  0  0  0  0  0  0  0
  -29.3530    0.7257    1.2846 C   0  0  0  0  0  0  0  0  0  0  0  0
  -29.0891    1.5246    0.1713 C   0  0  0  0  0  0  0  0  0  0  0  0
  -30.3010    1.8219   -0.3651 C   0  0  0  0  0  0  0  0  0  0  0  0
  -27.7198    2.0462   -0.3248 C   0  0  0  0  0  0  0  0  0  0  0  0
  -28.7862    4.4830    1.2594 C   0  0  0  0  0  0  0  0  0  0  0  0
  -29.8896    6.3495    0.2607 C   0  0  0  0  0  0  0  0  0  0  0  0
  -26.6493   -1.0418    4.1895 N   0  0  0  0  0  0  0  0  0  0  0  0
  -28.2390   -1.2810    2.3483 N   0  0  0  0  0  0  0  0  0  0  0  0
  -31.2432    1.2107    0.3874 N   0  0  0  0  0  0  0  0  0  0  0  0
  -30.6419    0.5070    1.3963 N   0  0  0  0  0  0  0  0  0  0  0  0
  -27.1819   -3.2466    3.4502 N   0  0  0  0  0  0  0  0  0  0  0  0
  -28.8777    5.3769    0.1670 O   0  0  0  0  0  0  0  0  0  0  0  0
  -29.6564    4.2398    1.9644 O   0  0  0  0  0  0  0  0  0  0  0  0
  -25.9429    1.3483    5.1300 Cl  0  0  0  0  0  0  0  0  0  0  0  0
  -25.2158    1.2524    0.6454 H   0  0  0  0  0  0  0  0  0  0  0  0
  -23.8722    2.3650    2.5650 H   0  0  0  0  0  0  0  0  0  0  0  0
  -24.7697    4.4352    3.7737 H   0  0  0  0  0  0  0  0  0  0  0  0
  -27.0427    5.4393    3.1246 H   0  0  0  0  0  0  0  0  0  0  0  0
  -33.2176    1.1995    1.1029 H   0  0  0  0  0  0  0  0  0  0  0  0
  -32.9613    2.0991   -0.4306 H   0  0  0  0  0  0  0  0  0  0  0  0
  -32.9511    0.3028   -0.4306 H   0  0  0  0  0  0  0  0  0  0  0  0
  -27.7820    2.0251    3.1232 H   0  0  0  0  0  0  0  0  0  0  0  0
  -30.4830    2.4472   -1.2517 H   0  0  0  0  0  0  0  0  0  0  0  0
  -27.8821    2.7954   -1.1136 H   0  0  0  0  0  0  0  0  0  0  0  0
  -27.1385    1.1997   -0.7192 H   0  0  0  0  0  0  0  0  0  0  0  0
  -30.1036    6.5551    1.3199 H   0  0  0  0  0  0  0  0  0  0  0  0
  -29.5560    7.2745   -0.2322 H   0  0  0  0  0  0  0  0  0  0  0  0
  -30.8007    5.9793   -0.2322 H   0  0  0  0  0  0  0  0  0  0  0  0
  -27.6826   -3.8992    2.8303 H   0  0  0  0  0  0  0  0  0  0  0  0
  -26.5461   -3.6097    4.1746 H   0  0  0  0  0  0  0  0  0  0  0  0
  1  2  2  0
  1  6  1  0
  1 16  1  0
  2  3  1  0
  2 15  1  0
  3  4  2  0
  4  5  1  0
  5  6  2  0
  7 20  1  0
  8  9  2  0
  8 18  1  0
  8 25  1  0
  9 10  1  0
 10 12  1  0
 10 19  2  0
 11 18  2  0
 11 19  1  0
 11 22  1  0
 12 13  1  0
 12 21  2  0
 13 14  2  0
 13 15  1  0
 14 20  1  0
 16 23  1  0
 16 24  2  0
 17 23  1  0
 20 21  1  0
  3 26  1  0
  4 27  1  0
  5 28  1  0
  6 29  1  0
  7 30  1  0
  7 31  1  0
  7 32  1  0
  9 33  1  0
 14 34  1  0
 15 35  1  0
 15 36  1  0
 17 37  1  0
 17 38  1  0
 17 39  1  0
 22 40  1  0
 22 41  1  0
M  END
>  <filename_input>  (23) 
8CNH_V6U_docked.sdf

>  <pdb_id>  (23) 
8CNH_V6U

>  <pose_rank>  (23) 
22

>  <num_atoms_heavy>  (23) 
25

>  <num_torsions>  (23) 
5

>  <pose>  (23) 
[-32.68188155693835, 1.2025303523018835, 0.1421613724007646, -4.138346763844454, 1.2839453741191107, -0.33217859128020677, -8.245451253776105, 10.008321532628337, 3.512584412873196, 2.2597669694772873, 0.5669511791476246]

>  <energy>  (23) 
-407.1742371293437

>  <inter_energy>  (23) 
-471.57790540180116

>  <intra_energy>  (23) 
75.28438995403086

>  <rmsd>  (23) 
5.46055

>  <sdf_rank>  (23) 
0

$$$$

     RDKit          3D

 41 43  0  0  0  0  0  0  0  0999 V2000
  -29.9817   -1.5284    1.5981 C   0  0  0  0  0  0  0  0  0  0  0  0
  -29.2047   -0.2605    1.5069 C   0  0  0  0  0  0  0  0  0  0  0  0
  -28.2926    0.1006    2.6218 C   0  0  0  0  0  0  0  0  0  0  0  0
  -28.1525   -0.8419    3.7744 C   0  0  0  0  0  0  0  0  0  0  0  0
  -28.9232   -2.0993    3.8354 C   0  0  0  0  0  0  0  0  0  0  0  0
  -29.8454   -2.4601    2.7624 C   0  0  0  0  0  0  0  0  0  0  0  0
  -24.7713    2.6606   -0.3397 C   0  0  0  0  0  0  0  0  0  0  0  0
  -29.9871    5.7231    2.5723 C   0  0  0  0  0  0  0  0  0  0  0  0
  -28.9511    4.8863    2.1814 C   0  0  0  0  0  0  0  0  0  0  0  0
  -29.2586    3.8916    1.2156 C   0  0  0  0  0  0  0  0  0  0  0  0
  -31.5727    4.6838    1.1886 C   0  0  0  0  0  0  0  0  0  0  0  0
  -28.1497    3.0245    0.6938 C   0  0  0  0  0  0  0  0  0  0  0  0
  -28.1862    1.6874    0.2960 C   0  0  0  0  0  0  0  0  0  0  0  0
  -26.9237    1.3871   -0.1049 C   0  0  0  0  0  0  0  0  0  0  0  0
  -29.3794    0.7051    0.3633 C   0  0  0  0  0  0  0  0  0  0  0  0
  -30.8798   -1.9990    0.5097 C   0  0  0  0  0  0  0  0  0  0  0  0
  -32.7920   -0.5727    0.4212 C   0  0  0  0  0  0  0  0  0  0  0  0
  -31.2848    5.6507    2.1590 N   0  0  0  0  0  0  0  0  0  0  0  0
  -30.5523    3.8156    0.7202 N   0  0  0  0  0  0  0  0  0  0  0  0
  -26.1738    2.5037    0.0321 N   0  0  0  0  0  0  0  0  0  0  0  0
  -26.9523    3.5264    0.5038 N   0  0  0  0  0  0  0  0  0  0  0  0
  -32.8971    4.6506    0.7129 N   0  0  0  0  0  0  0  0  0  0  0  0
  -32.2687   -1.8421    0.7270 O   0  0  0  0  0  0  0  0  0  0  0  0
  -30.4278   -2.5029   -0.4150 O   0  0  0  0  0  0  0  0  0  0  0  0
  -29.6122    6.8711    3.8352 Cl  0  0  0  0  0  0  0  0  0  0  0  0
  -27.7296    1.0453    2.6002 H   0  0  0  0  0  0  0  0  0  0  0  0
  -27.4612   -0.5931    4.5931 H   0  0  0  0  0  0  0  0  0  0  0  0
  -28.8016   -2.7712    4.6978 H   0  0  0  0  0  0  0  0  0  0  0  0
  -30.4258   -3.3934    2.8081 H   0  0  0  0  0  0  0  0  0  0  0  0
  -24.1563    2.7293    0.5697 H   0  0  0  0  0  0  0  0  0  0  0  0
  -24.4504    1.7927   -0.9346 H   0  0  0  0  0  0  0  0  0  0  0  0
  -24.6501    3.5779   -0.9346 H   0  0  0  0  0  0  0  0  0  0  0  0
  -27.9391    4.9889    2.6001 H   0  0  0  0  0  0  0  0  0  0  0  0
  -26.5745    0.4117   -0.4744 H   0  0  0  0  0  0  0  0  0  0  0  0
  -29.4383    0.1422   -0.5799 H   0  0  0  0  0  0  0  0  0  0  0  0
  -30.3043    1.2793    0.5208 H   0  0  0  0  0  0  0  0  0  0  0  0
  -33.0144   -0.0334    1.3538 H   0  0  0  0  0  0  0  0  0  0  0  0
  -32.0551   -0.0037   -0.1646 H   0  0  0  0  0  0  0  0  0  0  0  0
  -33.7158   -0.6884   -0.1646 H   0  0  0  0  0  0  0  0  0  0  0  0
  -33.1704    3.9612   -0.0019 H   0  0  0  0  0  0  0  0  0  0  0  0
  -33.5929    5.3156    1.0796 H   0  0  0  0  0  0  0  0  0  0  0  0
  1  2  2  0
  1  6  1  0
  1 16  1  0
  2  3  1  0
  2 15  1  0
  3  4  2  0
  4  5  1  0
  5  6  2  0
  7 20  1  0
  8  9  2  0
  8 18  1  0
  8 25  1  0
  9 10  1  0
 10 12  1  0
 10 19  2  0
 11 18  2  0
 11 19  1  0
 11 22  1  0
 12 13  1  0
 12 21  2  0
 13 14  2  0
 13 15  1  0
 14 20  1  0
 16 23  1  0
 16 24  2  0
 17 23  1  0
 20 21  1  0
  3 26  1  0
  4 27  1  0
  5 28  1  0
  6 29  1  0
  7 30  1  0
  7 31  1  0
  7 32  1  0
  9 33  1  0
 14 34  1  0
 15 35  1  0
 15 36  1  0
 17 37  1  0
 17 38  1  0
 17 39  1  0
 22 40  1  0
 22 41  1  0
M  END
>  <filename_input>  (24) 
8CNH_V6U_docked.sdf

>  <pdb_id>  (24) 
8CNH_V6U

>  <pose_rank>  (24) 
23

>  <num_atoms_heavy>  (24) 
25

>  <num_torsions>  (24) 
5

>  <pose>  (24) 
[-24.77131577302212, 2.6605500390071217, -0.3397483556659256, -0.5140875048581527, -2.841824639613188, -0.8293457234169388, -0.6374818775587894, 2.772229285138505, 1.7684251285741255, 1.9121306112544971, -1.5926771924852385]

>  <energy>  (24) 
-627.7608134825966

>  <inter_energy>  (24) 
-623.1288913942509

>  <intra_energy>  (24) 
14.917764835861627

>  <rmsd>  (24) 
3.74105

>  <sdf_rank>  (24) 
0

$$$$

     RDKit          3D

 41 43  0  0  0  0  0  0  0  0999 V2000
  -31.9730    3.6627    0.5010 C   0  0  0  0  0  0  0  0  0  0  0  0
  -31.1444    3.6207    1.7385 C   0  0  0  0  0  0  0  0  0  0  0  0
  -30.7435    4.9016    2.3739 C   0  0  0  0  0  0  0  0  0  0  0  0
  -31.2226    6.1857    1.7757 C   0  0  0  0  0  0  0  0  0  0  0  0
  -32.0544    6.2008    0.5563 C   0  0  0  0  0  0  0  0  0  0  0  0
  -32.4373    4.9535   -0.0992 C   0  0  0  0  0  0  0  0  0  0  0  0
  -25.9642    2.6766    0.4029 C   0  0  0  0  0  0  0  0  0  0  0  0
  -30.0385   -2.5283    2.7474 C   0  0  0  0  0  0  0  0  0  0  0  0
  -29.3405   -1.3326    2.6508 C   0  0  0  0  0  0  0  0  0  0  0  0
  -29.4476   -0.6237    1.4248 C   0  0  0  0  0  0  0  0  0  0  0  0
  -30.8958   -2.3982    0.5664 C   0  0  0  0  0  0  0  0  0  0  0  0
  -28.7862    0.7189    1.3070 C   0  0  0  0  0  0  0  0  0  0  0  0
  -29.2529    1.9718    1.7068 C   0  0  0  0  0  0  0  0  0  0  0  0
  -28.2687    2.8514    1.3867 C   0  0  0  0  0  0  0  0  0  0  0  0
  -30.6306    2.3265    2.3145 C   0  0  0  0  0  0  0  0  0  0  0  0
  -32.4656    2.4335   -0.1767 C   0  0  0  0  0  0  0  0  0  0  0  0
  -34.3738    1.5143    0.9245 C   0  0  0  0  0  0  0  0  0  0  0  0
  -30.7755   -3.1163    1.7620 N   0  0  0  0  0  0  0  0  0  0  0  0
  -30.2342   -1.1522    0.4115 N   0  0  0  0  0  0  0  0  0  0  0  0
  -27.2536    2.1481    0.8367 N   0  0  0  0  0  0  0  0  0  0  0  0
  -27.5731    0.8170    0.8167 N   0  0  0  0  0  0  0  0  0  0  0  0
  -31.7094   -2.9724   -0.4285 N   0  0  0  0  0  0  0  0  0  0  0  0
  -33.8656    2.2309   -0.1741 O   0  0  0  0  0  0  0  0  0  0  0  0
  -31.7107    1.6928   -0.6180 O   0  0  0  0  0  0  0  0  0  0  0  0
  -29.8104   -3.4334    4.2246 Cl  0  0  0  0  0  0  0  0  0  0  0  0
  -30.1050    4.9058    3.2696 H   0  0  0  0  0  0  0  0  0  0  0  0
  -30.9496    7.1380    2.2538 H   0  0  0  0  0  0  0  0  0  0  0  0
  -32.3891    7.1612    0.1373 H   0  0  0  0  0  0  0  0  0  0  0  0
  -33.0517    4.9619   -1.0115 H   0  0  0  0  0  0  0  0  0  0  0  0
  -25.3550    2.9262    1.2841 H   0  0  0  0  0  0  0  0  0  0  0  0
  -25.4422    1.9198   -0.2012 H   0  0  0  0  0  0  0  0  0  0  0  0
  -26.1234    3.5820   -0.2012 H   0  0  0  0  0  0  0  0  0  0  0  0
  -28.7328   -0.9517    3.4848 H   0  0  0  0  0  0  0  0  0  0  0  0
  -28.2933    3.9395    1.5463 H   0  0  0  0  0  0  0  0  0  0  0  0
  -30.5292    2.4306    3.4049 H   0  0  0  0  0  0  0  0  0  0  0  0
  -31.3425    1.5230    2.0746 H   0  0  0  0  0  0  0  0  0  0  0  0
  -34.0377    1.9882    1.8585 H   0  0  0  0  0  0  0  0  0  0  0  0
  -35.4731    1.5168    0.8870 H   0  0  0  0  0  0  0  0  0  0  0  0
  -34.0080    0.4776    0.8870 H   0  0  0  0  0  0  0  0  0  0  0  0
  -31.8371   -2.4914   -1.3303 H   0  0  0  0  0  0  0  0  0  0  0  0
  -32.1771   -3.8735   -0.2547 H   0  0  0  0  0  0  0  0  0  0  0  0
  1  2  2  0
  1  6  1  0
  1 16  1  0
  2  3  1  0
  2 15  1  0
  3  4  2  0
  4  5  1  0
  5  6  2  0
  7 20  1  0
  8  9  2  0
  8 18  1  0
  8 25  1  0
  9 10  1  0
 10 12  1  0
 10 19  2  0
 11 18  2  0
 11 19  1  0
 11 22  1  0
 12 13  1  0
 12 21  2  0
 13 14  2  0
 13 15  1  0
 14 20  1  0
 16 23  1  0
 16 24  2  0
 17 23  1  0
 20 21  1  0
  3 26  1  0
  4 27  1  0
  5 28  1  0
  6 29  1  0
  7 30  1  0
  7 31  1  0
  7 32  1  0
  9 33  1  0
 14 34  1  0
 15 35  1  0
 15 36  1  0
 17 37  1  0
 17 38  1  0
 17 39  1  0
 22 40  1  0
 22 41  1  0
M  END
>  <filename_input>  (25) 
8CNH_V6U_docked.sdf

>  <pdb_id>  (25) 
8CNH_V6U

>  <pose_rank>  (25) 
24

>  <num_atoms_heavy>  (25) 
25

>  <num_torsions>  (25) 
5

>  <pose>  (25) 
[-25.964172395164795, 2.676584212410532, 0.40285818657224626, -0.7042520466834229, 0.7121068902421664, -2.2970786733057778, 1.6332399664165964, 2.1554468377663505, -0.11115168433464288, -0.5630079415008747, 1.6751341500568282]

>  <energy>  (25) 
-624.6397644304839

>  <inter_energy>  (25) 
-623.9598504662829

>  <intra_energy>  (25) 
12.70135086038019

>  <rmsd>  (25) 
6.54485

>  <sdf_rank>  (25) 
0

$$$$

     RDKit          3D

 41 43  0  0  0  0  0  0  0  0999 V2000
  -29.7000   -1.0270    1.2390 C   0  0  0  0  0  0  0  0  0  0  0  0
  -28.8900    0.1970    0.9830 C   0  0  0  0  0  0  0  0  0  0  0  0
  -27.7650    0.5140    1.8990 C   0  0  0  0  0  0  0  0  0  0  0  0
  -27.4570   -0.4290    3.0180 C   0  0  0  0  0  0  0  0  0  0  0  0
  -28.2660   -1.6430    3.2430 C   0  0  0  0  0  0  0  0  0  0  0  0
  -29.3930   -1.9590    2.3700 C   0  0  0  0  0  0  0  0  0  0  0  0
  -33.1260    4.0190    1.3690 C   0  0  0  0  0  0  0  0  0  0  0  0
  -26.7380    5.8980    1.5190 C   0  0  0  0  0  0  0  0  0  0  0  0
  -28.0500    5.4650    1.3870 C   0  0  0  0  0  0  0  0  0  0  0  0
  -28.2450    4.1490    0.8900 C   0  0  0  0  0  0  0  0  0  0  0  0
  -25.8190    3.8980    0.7040 C   0  0  0  0  0  0  0  0  0  0  0  0
  -29.6420    3.6040    0.8180 C   0  0  0  0  0  0  0  0  0  0  0  0
  -30.0770    2.3370    0.4270 C   0  0  0  0  0  0  0  0  0  0  0  0
  -31.4290    2.3550    0.5560 C   0  0  0  0  0  0  0  0  0  0  0  0
  -29.2290    1.1650   -0.1210 C   0  0  0  0  0  0  0  0  0  0  0  0
  -30.8120   -1.4540    0.3480 C   0  0  0  0  0  0  0  0  0  0  0  0
  -32.1310   -3.2320   -0.5450 C   0  0  0  0  0  0  0  0  0  0  0  0
  -25.6180    5.2030    1.1690 N   0  0  0  0  0  0  0  0  0  0  0  0
  -27.1340    3.3800    0.5750 N   0  0  0  0  0  0  0  0  0  0  0  0
  -31.7800    3.5750    1.0210 N   0  0  0  0  0  0  0  0  0  0  0  0
  -30.6580    4.3370    1.2080 N   0  0  0  0  0  0  0  0  0  0  0  0
  -24.6610    3.1560    0.4040 N   0  0  0  0  0  0  0  0  0  0  0  0
  -31.0040   -2.8480    0.2040 O   0  0  0  0  0  0  0  0  0  0  0  0
  -31.4210   -0.6610   -0.2120 O   0  0  0  0  0  0  0  0  0  0  0  0
  -26.5240    7.5540    2.0340 Cl  0  0  0  0  0  0  0  0  0  0  0  0
  -27.1683    1.4271    1.7568 H   0  0  0  0  0  0  0  0  0  0  0  0
  -26.6106   -0.2137    3.6868 H   0  0  0  0  0  0  0  0  0  0  0  0
  -28.0174   -2.3163    4.0766 H   0  0  0  0  0  0  0  0  0  0  0  0
  -30.0015   -2.8596    2.5390 H   0  0  0  0  0  0  0  0  0  0  0  0
  -33.2293    4.0531    2.4636 H   0  0  0  0  0  0  0  0  0  0  0  0
  -33.3002    5.0222    0.9528 H   0  0  0  0  0  0  0  0  0  0  0  0
  -33.8629    3.3163    0.9528 H   0  0  0  0  0  0  0  0  0  0  0  0
  -28.8991    6.1110    1.6548 H   0  0  0  0  0  0  0  0  0  0  0  0
  -32.1145    1.5266    0.3240 H   0  0  0  0  0  0  0  0  0  0  0  0
  -28.2984    1.5623   -0.5524 H   0  0  0  0  0  0  0  0  0  0  0  0
  -29.8090    0.6364   -0.8918 H   0  0  0  0  0  0  0  0  0  0  0  0
  -32.9475   -3.5102    0.1376 H   0  0  0  0  0  0  0  0  0  0  0  0
  -32.4531   -2.3929   -1.1792 H   0  0  0  0  0  0  0  0  0  0  0  0
  -31.8737   -4.0932   -1.1792 H   0  0  0  0  0  0  0  0  0  0  0  0
  -24.7440    2.1895    0.0578 H   0  0  0  0  0  0  0  0  0  0  0  0
  -23.7307    3.5796    0.5307 H   0  0  0  0  0  0  0  0  0  0  0  0
  1  2  2  0
  1  6  1  0
  1 16  1  0
  2  3  1  0
  2 15  1  0
  3  4  2  0
  4  5  1  0
  5  6  2  0
  7 20  1  0
  8  9  2  0
  8 18  1  0
  8 25  1  0
  9 10  1  0
 10 12  1  0
 10 19  2  0
 11 18  2  0
 11 19  1  0
 11 22  1  0
 12 13  1  0
 12 21  2  0
 13 14  2  0
 13 15  1  0
 14 20  1  0
 16 23  1  0
 16 24  2  0
 17 23  1  0
 20 21  1  0
  3 26  1  0
  4 27  1  0
  5 28  1  0
  6 29  1  0
  7 30  1  0
  7 31  1  0
  7 32  1  0
  9 33  1  0
 14 34  1  0
 15 35  1  0
 15 36  1  0
 17 37  1  0
 17 38  1  0
 17 39  1  0
 22 40  1  0
 22 41  1  0
M  END
>  <filename_input>  (26) 
8CNH_V6U_docked.sdf

>  <pdb_id>  (26) 
8CNH_V6U

>  <pose_rank>  (26) 
25

>  <num_atoms_heavy>  (26) 
25

>  <num_torsions>  (26) 
5

>  <pose>  (26) 
[-33.126, 4.019, 1.369, 1e-06, 1e-06, 1e-06, 0.0, 0.0, 0.0, 0.0, 0.0]

>  <energy>  (26) 
-969.0402795767056

>  <inter_energy>  (26) 
-1016.4679849573521

>  <intra_energy>  (26) 
42.577398546124954

>  <rmsd>  (26) 
0.0

>  <sdf_rank>  (26) 
0

$$$$
