
     RDKit          3D

 33 34  0  0  0  0  0  0  0  0999 V2000
   14.5279   69.8512   31.4548 O   0  0  0  0  0  0  0  0  0  0  0  0
   14.7390   69.7137   32.9568 P   0  0  1  0  0  0  0  0  0  0  0  0
   13.4721   69.8812   33.7888 O   0  0  0  0  0  0  0  0  0  0  0  0
   15.6937   68.6297   33.4524 O   0  0  0  0  0  0  0  0  0  0  0  0
   15.5910   71.2466   33.3052 O   0  0  0  0  0  0  0  0  0  0  0  0
   16.9445   71.3418   33.3351 C   0  0  0  0  0  0  0  0  0  0  0  0
   17.3213   72.9313   33.5045 C   0  0  1  0  0  0  0  0  0  0  0  0
   16.1967   73.7538   33.2133 O   0  0  0  0  0  0  0  0  0  0  0  0
   17.6006   73.2091   34.9564 C   0  0  1  0  0  0  0  0  0  0  0  0
   18.9079   73.0411   35.4147 O   0  0  0  0  0  0  0  0  0  0  0  0
   17.2495   74.7418   35.0501 C   0  0  1  0  0  0  0  0  0  0  0  0
   18.3545   75.4099   34.5660 O   0  0  0  0  0  0  0  0  0  0  0  0
   16.0522   74.8378   34.0259 C   0  0  2  0  0  0  0  0  0  0  0  0
   14.7098   74.7697   34.7257 N   0  0  0  0  0  0  0  0  0  0  0  0
   14.1440   76.0311   35.2655 C   0  0  0  0  0  0  0  0  0  0  0  0
   12.8875   75.8910   35.9176 N   0  0  0  0  0  0  0  0  0  0  0  0
   12.1699   74.6966   36.0462 C   0  0  0  0  0  0  0  0  0  0  0  0
   12.7776   73.5056   35.4948 C   0  0  0  0  0  0  0  0  0  0  0  0
   14.0153   73.5854   34.8850 C   0  0  0  0  0  0  0  0  0  0  0  0
   14.7693   77.0734   35.1481 O   0  0  0  0  0  0  0  0  0  0  0  0
   10.9502   74.6925   36.6621 N   0  0  0  0  0  0  0  0  0  0  0  0
   17.3431   70.7683   34.1849 H   0  0  0  0  0  0  0  0  0  0  0  0
   17.3831   70.9349   32.4120 H   0  0  0  0  0  0  0  0  0  0  0  0
   18.1694   73.1401   32.8358 H   0  0  0  0  0  0  0  0  0  0  0  0
   17.0357   72.4948   35.5734 H   0  0  0  0  0  0  0  0  0  0  0  0
   18.9130   73.0405   36.4047 H   0  0  0  0  0  0  0  0  0  0  0  0
   17.0003   75.1429   36.0436 H   0  0  0  0  0  0  0  0  0  0  0  0
   18.8994   75.7393   35.3241 H   0  0  0  0  0  0  0  0  0  0  0  0
   16.0748   75.7931   33.4810 H   0  0  0  0  0  0  0  0  0  0  0  0
   12.2563   72.5392   35.5605 H   0  0  0  0  0  0  0  0  0  0  0  0
   14.4713   72.6585   34.5069 H   0  0  0  0  0  0  0  0  0  0  0  0
   10.4236   73.8123   36.7558 H   0  0  0  0  0  0  0  0  0  0  0  0
   10.5574   75.5696   37.0326 H   0  0  0  0  0  0  0  0  0  0  0  0
  2  1  1  6
  2  3  2  0
  2  4  1  0
  2  5  1  0
  5  6  1  0
  7  6  1  0
  7  8  1  0
  7  9  1  0
  8 13  1  0
  9 10  1  0
  9 11  1  0
 11 12  1  0
 11 13  1  0
 13 14  1  0
 14 15  1  0
 14 19  1  0
 15 16  1  0
 15 20  2  0
 16 17  2  0
 17 18  1  0
 17 21  1  0
 18 19  2  0
  6 22  1  0
  6 23  1  0
  7 24  1  6
  9 25  1  1
 10 26  1  0
 11 27  1  1
 12 28  1  0
 13 29  1  6
 18 30  1  0
 19 31  1  0
 21 32  1  0
 21 33  1  0
M  CHG  2   1  -1   4  -1
M  END
>  <filename_input>  (1) 
8CSD_C5P_docked.sdf

>  <pdb_id>  (1) 
8CSD_C5P

>  <pose_rank>  (1) 
0

>  <num_atoms_heavy>  (1) 
21

>  <num_torsions>  (1) 
4

>  <pose>  (1) 
[17.321261398267183, 72.9312548477237, 33.50447916891125, 4.453870336291633, -2.1236382795164035, 3.639051722385586, 0.042967637608885036, 0.7002953907592625, 0.25936983260743696, -2.9075102365437098]

>  <energy>  (1) 
-808.3795613565204

>  <inter_energy>  (1) 
-798.4132736845655

>  <intra_energy>  (1) 
7.07322155196951

>  <rmsd>  (1) 
0.595867

>  <sdf_rank>  (1) 
0

$$$$

     RDKit          3D

 33 34  0  0  0  0  0  0  0  0999 V2000
   18.2376   76.3941   30.7970 O   0  0  0  0  0  0  0  0  0  0  0  0
   16.8280   76.4696   30.2251 P   0  0  1  0  0  0  0  0  0  0  0  0
   15.9226   77.4853   30.9136 O   0  0  0  0  0  0  0  0  0  0  0  0
   16.6614   76.3848   28.7095 O   0  0  0  0  0  0  0  0  0  0  0  0
   16.1504   74.9300   30.8315 O   0  0  0  0  0  0  0  0  0  0  0  0
   16.9267   73.9323   31.3254 C   0  0  0  0  0  0  0  0  0  0  0  0
   17.4373   74.3991   32.8148 C   0  0  1  0  0  0  0  0  0  0  0  0
   16.5095   75.2988   33.4112 O   0  0  0  0  0  0  0  0  0  0  0  0
   17.4148   73.2047   33.7291 C   0  0  1  0  0  0  0  0  0  0  0  0
   18.5579   72.4066   33.7909 O   0  0  0  0  0  0  0  0  0  0  0  0
   17.2315   73.8947   35.1333 C   0  0  1  0  0  0  0  0  0  0  0  0
   18.4867   74.3296   35.5041 O   0  0  0  0  0  0  0  0  0  0  0  0
   16.3133   75.1193   34.7474 C   0  0  2  0  0  0  0  0  0  0  0  0
   14.8497   74.8260   35.0086 N   0  0  0  0  0  0  0  0  0  0  0  0
   13.9663   75.9649   35.3624 C   0  0  0  0  0  0  0  0  0  0  0  0
   12.6086   75.6151   35.6035 N   0  0  0  0  0  0  0  0  0  0  0  0
   12.0731   74.3265   35.4999 C   0  0  0  0  0  0  0  0  0  0  0  0
   12.9890   73.2637   35.1481 C   0  0  0  0  0  0  0  0  0  0  0  0
   14.3253   73.5491   34.9412 C   0  0  0  0  0  0  0  0  0  0  0  0
   14.4343   77.0895   35.4478 O   0  0  0  0  0  0  0  0  0  0  0  0
   10.7406   74.1181   35.7186 N   0  0  0  0  0  0  0  0  0  0  0  0
   16.3418   73.0039   31.4024 H   0  0  0  0  0  0  0  0  0  0  0  0
   17.7838   73.7427   30.6626 H   0  0  0  0  0  0  0  0  0  0  0  0
   18.4319   74.8529   32.6928 H   0  0  0  0  0  0  0  0  0  0  0  0
   16.6474   72.4989   33.3786 H   0  0  0  0  0  0  0  0  0  0  0  0
   18.7943   72.2415   34.7380 H   0  0  0  0  0  0  0  0  0  0  0  0
   16.8145   73.2823   35.9463 H   0  0  0  0  0  0  0  0  0  0  0  0
   18.5499   74.3515   36.4918 H   0  0  0  0  0  0  0  0  0  0  0  0
   16.5677   76.0070   35.3451 H   0  0  0  0  0  0  0  0  0  0  0  0
   12.6230   72.2314   35.0456 H   0  0  0  0  0  0  0  0  0  0  0  0
   15.0069   72.7169   34.7110 H   0  0  0  0  0  0  0  0  0  0  0  0
   10.3483   73.1688   35.6418 H   0  0  0  0  0  0  0  0  0  0  0  0
   10.1283   74.9104   35.9602 H   0  0  0  0  0  0  0  0  0  0  0  0
  2  1  1  6
  2  3  2  0
  2  4  1  0
  2  5  1  0
  5  6  1  0
  7  6  1  0
  7  8  1  0
  7  9  1  0
  8 13  1  0
  9 10  1  0
  9 11  1  0
 11 12  1  0
 11 13  1  0
 13 14  1  0
 14 15  1  0
 14 19  1  0
 15 16  1  0
 15 20  2  0
 16 17  2  0
 17 18  1  0
 17 21  1  0
 18 19  2  0
  6 22  1  0
  6 23  1  0
  7 24  1  6
  9 25  1  6
 10 26  1  0
 11 27  1  1
 12 28  1  0
 13 29  1  1
 18 30  1  0
 19 31  1  0
 21 32  1  0
 21 33  1  0
M  CHG  2   1  -1   4  -1
M  END
>  <filename_input>  (2) 
8CSD_C5P_docked.sdf

>  <pdb_id>  (2) 
8CSD_C5P

>  <pose_rank>  (2) 
1

>  <num_atoms_heavy>  (2) 
21

>  <num_torsions>  (2) 
4

>  <pose>  (2) 
[17.437343431854412, 74.39912374455224, 32.81477224037841, -5.045087332373629, 0.15274295398950674, 1.4558632561937985, 1.170868790729168, -4.833376588051, -1.4664030096627432, 4.753164172127306]

>  <energy>  (2) 
-590.6043582379906

>  <inter_energy>  (2) 
-619.1926210639448

>  <intra_energy>  (2) 
23.988097974904505

>  <rmsd>  (2) 
3.66864

>  <sdf_rank>  (2) 
0

$$$$

     RDKit          3D

 33 34  0  0  0  0  0  0  0  0999 V2000
   15.9495   66.9795   33.6018 O   0  0  0  0  0  0  0  0  0  0  0  0
   16.2350   67.5965   32.2390 P   0  0  1  0  0  0  0  0  0  0  0  0
   17.5428   67.1389   31.6020 O   0  0  0  0  0  0  0  0  0  0  0  0
   15.0699   67.7606   31.2656 O   0  0  0  0  0  0  0  0  0  0  0  0
   16.6476   69.2682   32.7212 O   0  0  0  0  0  0  0  0  0  0  0  0
   15.7091   70.2334   32.8937 C   0  0  0  0  0  0  0  0  0  0  0  0
   16.4955   71.6723   32.9834 C   0  0  1  0  0  0  0  0  0  0  0  0
   15.5972   72.7562   32.7729 O   0  0  0  0  0  0  0  0  0  0  0  0
   16.9737   71.8738   34.3954 C   0  0  1  0  0  0  0  0  0  0  0  0
   18.2317   71.3758   34.7373 O   0  0  0  0  0  0  0  0  0  0  0  0
   17.0383   73.4456   34.4777 C   0  0  1  0  0  0  0  0  0  0  0  0
   18.2265   73.8040   33.8764 O   0  0  0  0  0  0  0  0  0  0  0  0
   15.8139   73.8437   33.5646 C   0  0  2  0  0  0  0  0  0  0  0  0
   14.5719   74.1269   34.3853 N   0  0  0  0  0  0  0  0  0  0  0  0
   14.3550   75.5169   34.8582 C   0  0  0  0  0  0  0  0  0  0  0  0
   13.1756   75.7077   35.6305 N   0  0  0  0  0  0  0  0  0  0  0  0
   12.2339   74.7170   35.9299 C   0  0  0  0  0  0  0  0  0  0  0  0
   12.5055   73.3852   35.4353 C   0  0  0  0  0  0  0  0  0  0  0  0
   13.6581   73.1430   34.7121 C   0  0  0  0  0  0  0  0  0  0  0  0
   15.1754   76.3813   34.5921 O   0  0  0  0  0  0  0  0  0  0  0  0
   11.1158   75.0291   36.6506 N   0  0  0  0  0  0  0  0  0  0  0  0
   15.0131   70.2377   32.0419 H   0  0  0  0  0  0  0  0  0  0  0  0
   15.1278   70.0507   33.8095 H   0  0  0  0  0  0  0  0  0  0  0  0
   17.3011   71.6527   32.2346 H   0  0  0  0  0  0  0  0  0  0  0  0
   16.3060   71.3318   35.0812 H   0  0  0  0  0  0  0  0  0  0  0  0
   18.3165   71.3422   35.7231 H   0  0  0  0  0  0  0  0  0  0  0  0
   16.9963   73.9010   35.4781 H   0  0  0  0  0  0  0  0  0  0  0  0
   18.9005   74.0073   34.5724 H   0  0  0  0  0  0  0  0  0  0  0  0
   16.0288   74.7588   32.9933 H   0  0  0  0  0  0  0  0  0  0  0  0
   11.7969   72.5676   35.6341 H   0  0  0  0  0  0  0  0  0  0  0  0
   13.8585   72.1138   34.3793 H   0  0  0  0  0  0  0  0  0  0  0  0
   10.4238   74.2984   36.8699 H   0  0  0  0  0  0  0  0  0  0  0  0
   10.9650   75.9951   36.9747 H   0  0  0  0  0  0  0  0  0  0  0  0
  2  1  1  1
  2  3  2  0
  2  4  1  0
  2  5  1  0
  5  6  1  0
  7  6  1  0
  7  8  1  0
  7  9  1  0
  8 13  1  0
  9 10  1  0
  9 11  1  0
 11 12  1  0
 11 13  1  0
 13 14  1  0
 14 15  1  0
 14 19  1  0
 15 16  1  0
 15 20  2  0
 16 17  2  0
 17 18  1  0
 17 21  1  0
 18 19  2  0
  6 22  1  0
  6 23  1  0
  7 24  1  6
  9 25  1  1
 10 26  1  0
 11 27  1  1
 12 28  1  0
 13 29  1  6
 18 30  1  0
 19 31  1  0
 21 32  1  0
 21 33  1  0
M  CHG  2   1  -1   4  -1
M  END
>  <filename_input>  (3) 
8CSD_C5P_docked.sdf

>  <pdb_id>  (3) 
8CSD_C5P

>  <pose_rank>  (3) 
2

>  <num_atoms_heavy>  (3) 
21

>  <num_torsions>  (3) 
4

>  <pose>  (3) 
[16.495490293242288, 71.67228264276311, 32.98339392472868, 1.8121964842158027, -2.3565428277454097, 5.075670938932849, 0.11657135856531872, 3.8169550108703336, 0.6026772306766705, 3.507369506189766]

>  <energy>  (3) 
-631.6098034995794

>  <inter_energy>  (3) 
-632.2331353129546

>  <intra_energy>  (3) 
3.135686127638922

>  <rmsd>  (3) 
1.92366

>  <sdf_rank>  (3) 
0

$$$$

     RDKit          3D

 33 34  0  0  0  0  0  0  0  0999 V2000
   21.1809   73.9289   35.5359 O   0  0  0  0  0  0  0  0  0  0  0  0
   20.3498   74.2637   36.7675 P   0  0  1  0  0  0  0  0  0  0  0  0
   20.3824   73.1981   37.8578 O   0  0  0  0  0  0  0  0  0  0  0  0
   20.3661   75.7035   37.2763 O   0  0  0  0  0  0  0  0  0  0  0  0
   18.7002   74.0442   36.1136 O   0  0  0  0  0  0  0  0  0  0  0  0
   18.4527   73.3719   34.9608 C   0  0  0  0  0  0  0  0  0  0  0  0
   17.7738   74.4346   33.9089 C   0  0  1  0  0  0  0  0  0  0  0  0
   16.4899   73.9849   33.4900 O   0  0  0  0  0  0  0  0  0  0  0  0
   17.4822   75.7172   34.6391 C   0  0  1  0  0  0  0  0  0  0  0  0
   18.4847   76.6870   34.6836 O   0  0  0  0  0  0  0  0  0  0  0  0
   16.2904   76.2938   33.7857 C   0  0  1  0  0  0  0  0  0  0  0  0
   16.8708   76.8895   32.6856 O   0  0  0  0  0  0  0  0  0  0  0  0
   15.5500   74.9637   33.3684 C   0  0  2  0  0  0  0  0  0  0  0  0
   14.3830   74.6607   34.2865 N   0  0  0  0  0  0  0  0  0  0  0  0
   13.8202   75.7780   35.0850 C   0  0  0  0  0  0  0  0  0  0  0  0
   12.7344   75.4194   35.9313 N   0  0  0  0  0  0  0  0  0  0  0  0
   12.1693   74.1429   36.0277 C   0  0  0  0  0  0  0  0  0  0  0  0
   12.7643   73.1013   35.2196 C   0  0  0  0  0  0  0  0  0  0  0  0
   13.8456   73.3934   34.4098 C   0  0  0  0  0  0  0  0  0  0  0  0
   14.3115   76.8924   34.9961 O   0  0  0  0  0  0  0  0  0  0  0  0
   11.0998   73.9269   36.8501 N   0  0  0  0  0  0  0  0  0  0  0  0
   19.3926   72.9798   34.5451 H   0  0  0  0  0  0  0  0  0  0  0  0
   17.7787   72.5221   35.1438 H   0  0  0  0  0  0  0  0  0  0  0  0
   18.4678   74.5470   33.0629 H   0  0  0  0  0  0  0  0  0  0  0  0
   17.3158   75.4942   35.7034 H   0  0  0  0  0  0  0  0  0  0  0  0
   18.7003   76.8956   35.6270 H   0  0  0  0  0  0  0  0  0  0  0  0
   15.6261   77.0223   34.2735 H   0  0  0  0  0  0  0  0  0  0  0  0
   17.5293   77.5653   32.9852 H   0  0  0  0  0  0  0  0  0  0  0  0
   15.1378   75.0438   32.3517 H   0  0  0  0  0  0  0  0  0  0  0  0
   12.3574   72.0797   35.2493 H   0  0  0  0  0  0  0  0  0  0  0  0
   14.3020   72.5750   33.8338 H   0  0  0  0  0  0  0  0  0  0  0  0
   10.6853   72.9866   36.9197 H   0  0  0  0  0  0  0  0  0  0  0  0
   10.7081   74.7044   37.4006 H   0  0  0  0  0  0  0  0  0  0  0  0
  2  1  1  6
  2  3  2  0
  2  4  1  0
  2  5  1  0
  5  6  1  0
  7  6  1  0
  7  8  1  0
  7  9  1  0
  8 13  1  0
  9 10  1  0
  9 11  1  0
 11 12  1  0
 11 13  1  0
 13 14  1  0
 14 15  1  0
 14 19  1  0
 15 16  1  0
 15 20  2  0
 16 17  2  0
 17 18  1  0
 17 21  1  0
 18 19  2  0
  6 22  1  0
  6 23  1  0
  7 24  1  6
  9 25  1  1
 10 26  1  0
 11 27  1  1
 12 28  1  0
 13 29  1  6
 18 30  1  0
 19 31  1  0
 21 32  1  0
 21 33  1  0
M  CHG  2   1  -1   4  -1
M  END
>  <filename_input>  (4) 
8CSD_C5P_docked.sdf

>  <pdb_id>  (4) 
8CSD_C5P

>  <pose_rank>  (4) 
3

>  <num_atoms_heavy>  (4) 
21

>  <num_torsions>  (4) 
4

>  <pose>  (4) 
[17.773774616268597, 74.43462285347414, 33.90887033953875, 4.355001529220118, -0.019353538391002303, -2.760383438962846, -1.0944935436403218, -1.1461726698585883, 1.4623899157636637, -0.9801506704131928]

>  <energy>  (4) 
-589.3495740837823

>  <inter_energy>  (4) 
-639.05844939723

>  <intra_energy>  (4) 
50.569400960647066

>  <rmsd>  (4) 
4.05142

>  <sdf_rank>  (4) 
0

$$$$

     RDKit          3D

 33 34  0  0  0  0  0  0  0  0999 V2000
   16.7490   79.6247   33.7714 O   0  0  0  0  0  0  0  0  0  0  0  0
   16.9291   78.5619   34.8473 P   0  0  1  0  0  0  0  0  0  0  0  0
   18.0815   78.8289   35.8096 O   0  0  0  0  0  0  0  0  0  0  0  0
   15.6767   77.9732   35.4933 O   0  0  0  0  0  0  0  0  0  0  0  0
   17.5942   77.2211   33.8690 O   0  0  0  0  0  0  0  0  0  0  0  0
   16.9573   76.7241   32.7785 C   0  0  0  0  0  0  0  0  0  0  0  0
   17.0308   75.0862   32.8710 C   0  0  1  0  0  0  0  0  0  0  0  0
   16.6241   74.6312   34.1570 O   0  0  0  0  0  0  0  0  0  0  0  0
   15.9997   74.5035   31.9435 C   0  0  1  0  0  0  0  0  0  0  0  0
   16.3725   74.2604   30.6209 O   0  0  0  0  0  0  0  0  0  0  0  0
   15.7187   73.1134   32.6290 C   0  0  1  0  0  0  0  0  0  0  0  0
   16.7469   72.2846   32.2315 O   0  0  0  0  0  0  0  0  0  0  0  0
   15.8729   73.4945   34.1530 C   0  0  2  0  0  0  0  0  0  0  0  0
   14.5309   73.7732   34.7991 N   0  0  0  0  0  0  0  0  0  0  0  0
   13.4620   72.7551   34.6453 C   0  0  0  0  0  0  0  0  0  0  0  0
   12.2270   73.0871   35.2684 N   0  0  0  0  0  0  0  0  0  0  0  0
   11.9802   74.2468   36.0115 C   0  0  0  0  0  0  0  0  0  0  0  0
   13.0664   75.1952   36.1243 C   0  0  0  0  0  0  0  0  0  0  0  0
   14.2735   74.9339   35.5039 C   0  0  0  0  0  0  0  0  0  0  0  0
   13.6806   71.7414   34.0005 O   0  0  0  0  0  0  0  0  0  0  0  0
   10.7610   74.4389   36.5978 N   0  0  0  0  0  0  0  0  0  0  0  0
   15.9078   77.0537   32.7733 H   0  0  0  0  0  0  0  0  0  0  0  0
   17.4330   77.0827   31.8538 H   0  0  0  0  0  0  0  0  0  0  0  0
   18.0642   74.7908   32.6366 H   0  0  0  0  0  0  0  0  0  0  0  0
   15.1718   75.2192   31.8323 H   0  0  0  0  0  0  0  0  0  0  0  0
   17.2017   73.7198   30.6058 H   0  0  0  0  0  0  0  0  0  0  0  0
   14.7607   72.6228   32.4020 H   0  0  0  0  0  0  0  0  0  0  0  0
   17.2024   71.9175   33.0301 H   0  0  0  0  0  0  0  0  0  0  0  0
   16.3307   72.6714   34.7211 H   0  0  0  0  0  0  0  0  0  0  0  0
   12.9322   76.1216   36.7020 H   0  0  0  0  0  0  0  0  0  0  0  0
   15.0705   75.6887   35.5748 H   0  0  0  0  0  0  0  0  0  0  0  0
   10.5813   75.2933   37.1443 H   0  0  0  0  0  0  0  0  0  0  0  0
   10.0217   73.7294   36.4931 H   0  0  0  0  0  0  0  0  0  0  0  0
  2  1  1  6
  2  3  2  0
  2  4  1  0
  2  5  1  0
  5  6  1  0
  7  6  1  0
  7  8  1  0
  7  9  1  0
  8 13  1  0
  9 10  1  0
  9 11  1  0
 11 12  1  0
 11 13  1  0
 13 14  1  0
 14 15  1  0
 14 19  1  0
 15 16  1  0
 15 20  2  0
 16 17  2  0
 17 18  1  0
 17 21  1  0
 18 19  2  0
  6 22  1  0
  6 23  1  0
  7 24  1  6
  9 25  1  6
 10 26  1  0
 11 27  1  1
 12 28  1  0
 13 29  1  1
 18 30  1  0
 19 31  1  0
 21 32  1  0
 21 33  1  0
M  CHG  2   1  -1   4  -1
M  END
>  <filename_input>  (5) 
8CSD_C5P_docked.sdf

>  <pdb_id>  (5) 
8CSD_C5P

>  <pose_rank>  (5) 
4

>  <num_atoms_heavy>  (5) 
21

>  <num_torsions>  (5) 
4

>  <pose>  (5) 
[17.030819553858723, 75.08615834623996, 32.87104539984095, 2.5131131334424217, -0.00835395303552771, -1.2612008565892718, 5.740811581223753, -4.450681387439725, 1.1548373990094438, -2.24323228676038]

>  <energy>  (5) 
-630.0291333851551

>  <inter_energy>  (5) 
-634.5488876400132

>  <intra_energy>  (5) 
20.45464864898874

>  <rmsd>  (5) 
5.12348

>  <sdf_rank>  (5) 
0

$$$$

     RDKit          3D

 33 34  0  0  0  0  0  0  0  0999 V2000
   16.4516   80.2930   32.8643 O   0  0  0  0  0  0  0  0  0  0  0  0
   17.8939   80.1276   33.3248 P   0  0  1  0  0  0  0  0  0  0  0  0
   18.8383   81.2238   32.8432 O   0  0  0  0  0  0  0  0  0  0  0  0
   18.1421   79.6484   34.7533 O   0  0  0  0  0  0  0  0  0  0  0  0
   18.4041   78.7526   32.3019 O   0  0  0  0  0  0  0  0  0  0  0  0
   17.7852   77.5452   32.3360 C   0  0  0  0  0  0  0  0  0  0  0  0
   18.4469   76.6891   33.5714 C   0  0  1  0  0  0  0  0  0  0  0  0
   17.4792   76.4235   34.5809 O   0  0  0  0  0  0  0  0  0  0  0  0
   18.8201   75.3222   33.0660 C   0  0  1  0  0  0  0  0  0  0  0  0
   20.0906   75.1534   32.5140 O   0  0  0  0  0  0  0  0  0  0  0  0
   18.7534   74.4744   34.3919 C   0  0  1  0  0  0  0  0  0  0  0  0
   19.9437   74.7096   35.0476 O   0  0  0  0  0  0  0  0  0  0  0  0
   17.5592   75.1842   35.1413 C   0  0  2  0  0  0  0  0  0  0  0  0
   16.2506   74.4493   34.9317 N   0  0  0  0  0  0  0  0  0  0  0  0
   14.9949   75.2384   34.9885 C   0  0  0  0  0  0  0  0  0  0  0  0
   13.8055   74.4828   34.7932 N   0  0  0  0  0  0  0  0  0  0  0  0
   13.7518   73.1095   34.5302 C   0  0  0  0  0  0  0  0  0  0  0  0
   15.0127   72.4021   34.4854 C   0  0  0  0  0  0  0  0  0  0  0  0
   16.1926   73.0869   34.7067 C   0  0  0  0  0  0  0  0  0  0  0  0
   15.0439   76.4376   35.2134 O   0  0  0  0  0  0  0  0  0  0  0  0
   12.5480   72.4980   34.3212 N   0  0  0  0  0  0  0  0  0  0  0  0
   16.7070   77.6800   32.5070 H   0  0  0  0  0  0  0  0  0  0  0  0
   17.9164   77.0144   31.3815 H   0  0  0  0  0  0  0  0  0  0  0  0
   19.2957   77.2729   33.9569 H   0  0  0  0  0  0  0  0  0  0  0  0
   18.1572   75.0556   32.2297 H   0  0  0  0  0  0  0  0  0  0  0  0
   20.7571   75.0648   33.2407 H   0  0  0  0  0  0  0  0  0  0  0  0
   18.6139   73.3880   34.2901 H   0  0  0  0  0  0  0  0  0  0  0  0
   19.7931   74.6798   36.0256 H   0  0  0  0  0  0  0  0  0  0  0  0
   17.7347   75.2107   36.2269 H   0  0  0  0  0  0  0  0  0  0  0  0
   15.0324   71.3224   34.2760 H   0  0  0  0  0  0  0  0  0  0  0  0
   17.1342   72.5182   34.7034 H   0  0  0  0  0  0  0  0  0  0  0  0
   12.5106   71.4870   34.1277 H   0  0  0  0  0  0  0  0  0  0  0  0
   11.6778   73.0480   34.3571 H   0  0  0  0  0  0  0  0  0  0  0  0
  2  1  1  1
  2  3  2  0
  2  4  1  0
  2  5  1  0
  5  6  1  0
  7  6  1  0
  7  8  1  0
  7  9  1  0
  8 13  1  0
  9 10  1  0
  9 11  1  0
 11 12  1  0
 11 13  1  0
 13 14  1  0
 14 15  1  0
 14 19  1  0
 15 16  1  0
 15 20  2  0
 16 17  2  0
 17 18  1  0
 17 21  1  0
 18 19  2  0
  6 22  1  0
  6 23  1  0
  7 24  1  1
  9 25  1  6
 10 26  1  0
 11 27  1  6
 12 28  1  0
 13 29  1  1
 18 30  1  0
 19 31  1  0
 21 32  1  0
 21 33  1  0
M  CHG  2   1  -1   4  -1
M  END
>  <filename_input>  (6) 
8CSD_C5P_docked.sdf

>  <pdb_id>  (6) 
8CSD_C5P

>  <pose_rank>  (6) 
5

>  <num_atoms_heavy>  (6) 
21

>  <num_torsions>  (6) 
4

>  <pose>  (6) 
[18.446855478632784, 76.68912718861195, 33.57139918067399, -4.239244377870979, -0.7188451241108489, 0.1374193301393724, -4.096195257157582, -3.2908049458913213, 2.042387422897235, -2.300430117305155]

>  <energy>  (6) 
-474.0895661978366

>  <inter_energy>  (6) 
-494.89532871752493

>  <intra_energy>  (6) 
28.526372879095998

>  <rmsd>  (6) 
5.7197

>  <sdf_rank>  (6) 
0

$$$$

     RDKit          3D

 33 34  0  0  0  0  0  0  0  0999 V2000
   14.0056   68.4555   33.6310 O   0  0  0  0  0  0  0  0  0  0  0  0
   14.7298   69.0832   32.4473 P   0  0  1  0  0  0  0  0  0  0  0  0
   16.0299   68.3853   32.0624 O   0  0  0  0  0  0  0  0  0  0  0  0
   13.8911   69.5733   31.2690 O   0  0  0  0  0  0  0  0  0  0  0  0
   15.3479   70.5808   33.2037 O   0  0  0  0  0  0  0  0  0  0  0  0
   16.2545   71.3878   32.5964 C   0  0  0  0  0  0  0  0  0  0  0  0
   16.4814   72.6909   33.5696 C   0  0  1  0  0  0  0  0  0  0  0  0
   17.5474   73.5034   33.0904 O   0  0  0  0  0  0  0  0  0  0  0  0
   15.2765   73.5857   33.4671 C   0  0  1  0  0  0  0  0  0  0  0  0
   14.2123   73.3524   34.3392 O   0  0  0  0  0  0  0  0  0  0  0  0
   15.9002   74.9858   33.8305 C   0  0  1  0  0  0  0  0  0  0  0  0
   15.9783   75.0155   35.2071 O   0  0  0  0  0  0  0  0  0  0  0  0
   17.3394   74.8456   33.1976 C   0  0  2  0  0  0  0  0  0  0  0  0
   17.4109   75.4795   31.8230 N   0  0  0  0  0  0  0  0  0  0  0  0
   18.1582   76.7544   31.6850 C   0  0  0  0  0  0  0  0  0  0  0  0
   18.1755   77.2971   30.3701 N   0  0  0  0  0  0  0  0  0  0  0  0
   17.5858   76.7119   29.2441 C   0  0  0  0  0  0  0  0  0  0  0  0
   16.8760   75.4684   29.4489 C   0  0  0  0  0  0  0  0  0  0  0  0
   16.7997   74.9218   30.7160 C   0  0  0  0  0  0  0  0  0  0  0  0
   18.6762   77.2613   32.6678 O   0  0  0  0  0  0  0  0  0  0  0  0
   17.7020   77.3093   28.0207 N   0  0  0  0  0  0  0  0  0  0  0  0
   17.2045   70.8503   32.4600 H   0  0  0  0  0  0  0  0  0  0  0  0
   15.8934   71.7011   31.6057 H   0  0  0  0  0  0  0  0  0  0  0  0
   16.6750   72.3125   34.5842 H   0  0  0  0  0  0  0  0  0  0  0  0
   14.8119   73.4502   32.4792 H   0  0  0  0  0  0  0  0  0  0  0  0
   14.5305   73.4222   35.2741 H   0  0  0  0  0  0  0  0  0  0  0  0
   15.3634   75.8823   33.4868 H   0  0  0  0  0  0  0  0  0  0  0  0
   15.1264   74.6907   35.5930 H   0  0  0  0  0  0  0  0  0  0  0  0
   18.0940   75.3523   33.8172 H   0  0  0  0  0  0  0  0  0  0  0  0
   16.3983   74.9594   28.5988 H   0  0  0  0  0  0  0  0  0  0  0  0
   16.2228   73.9949   30.8504 H   0  0  0  0  0  0  0  0  0  0  0  0
   17.2672   76.8770   27.1931 H   0  0  0  0  0  0  0  0  0  0  0  0
   18.2243   78.1921   27.9262 H   0  0  0  0  0  0  0  0  0  0  0  0
  2  1  1  1
  2  3  2  0
  2  4  1  0
  2  5  1  0
  5  6  1  0
  7  6  1  0
  7  8  1  0
  7  9  1  0
  8 13  1  0
  9 10  1  0
  9 11  1  0
 11 12  1  0
 11 13  1  0
 13 14  1  0
 14 15  1  0
 14 19  1  0
 15 16  1  0
 15 20  2  0
 16 17  2  0
 17 18  1  0
 17 21  1  0
 18 19  2  0
  6 22  1  0
  6 23  1  0
  7 24  1  1
  9 25  1  6
 10 26  1  0
 11 27  1  6
 12 28  1  0
 13 29  1  1
 18 30  1  0
 19 31  1  0
 21 32  1  0
 21 33  1  0
M  CHG  2   1  -1   4  -1
M  END
>  <filename_input>  (7) 
8CSD_C5P_docked.sdf

>  <pdb_id>  (7) 
8CSD_C5P

>  <pose_rank>  (7) 
6

>  <num_atoms_heavy>  (7) 
21

>  <num_torsions>  (7) 
4

>  <pose>  (7) 
[16.481442453988066, 72.69093777030037, 33.56961444276877, 0.06084989240269871, 3.8207491066161374, 1.7707429979980236, 0.4315796517961208, 3.9814183378612515, 0.3139941526659149, -4.601845806903033]

>  <energy>  (7) 
-460.1315993873253

>  <inter_energy>  (7) 
-444.72836010326006

>  <intra_energy>  (7) 
6.376668546825046

>  <rmsd>  (7) 
4.73707

>  <sdf_rank>  (7) 
0

$$$$

     RDKit          3D

 33 34  0  0  0  0  0  0  0  0999 V2000
   19.3341   73.3662   37.0580 O   0  0  0  0  0  0  0  0  0  0  0  0
   18.5427   73.4012   35.7572 P   0  0  1  0  0  0  0  0  0  0  0  0
   19.4021   73.4304   34.4978 O   0  0  0  0  0  0  0  0  0  0  0  0
   17.2859   72.5397   35.6568 O   0  0  0  0  0  0  0  0  0  0  0  0
   17.9267   75.0793   35.7988 O   0  0  0  0  0  0  0  0  0  0  0  0
   18.2088   75.9872   34.8302 C   0  0  0  0  0  0  0  0  0  0  0  0
   17.4171   75.5167   33.4706 C   0  0  1  0  0  0  0  0  0  0  0  0
   16.5332   74.4355   33.7459 O   0  0  0  0  0  0  0  0  0  0  0  0
   16.4992   76.6271   33.0377 C   0  0  1  0  0  0  0  0  0  0  0  0
   17.0106   77.6015   32.1797 O   0  0  0  0  0  0  0  0  0  0  0  0
   15.3937   75.8251   32.2529 C   0  0  1  0  0  0  0  0  0  0  0  0
   15.9215   75.5857   31.0015 O   0  0  0  0  0  0  0  0  0  0  0  0
   15.3378   74.4908   33.0944 C   0  0  2  0  0  0  0  0  0  0  0  0
   14.2108   74.5140   34.1071 N   0  0  0  0  0  0  0  0  0  0  0  0
   13.7640   73.2189   34.6777 C   0  0  0  0  0  0  0  0  0  0  0  0
   12.6967   73.3150   35.6133 N   0  0  0  0  0  0  0  0  0  0  0  0
   12.0923   74.5049   36.0338 C   0  0  0  0  0  0  0  0  0  0  0  0
   12.5784   75.7310   35.4400 C   0  0  0  0  0  0  0  0  0  0  0  0
   13.5885   75.6845   34.4979 C   0  0  0  0  0  0  0  0  0  0  0  0
   14.2957   72.1818   34.3132 O   0  0  0  0  0  0  0  0  0  0  0  0
   11.0978   74.4751   36.9703 N   0  0  0  0  0  0  0  0  0  0  0  0
   17.8652   76.9855   35.1390 H   0  0  0  0  0  0  0  0  0  0  0  0
   19.2928   76.0392   34.6503 H   0  0  0  0  0  0  0  0  0  0  0  0
   18.1790   75.2469   32.7245 H   0  0  0  0  0  0  0  0  0  0  0  0
   16.2052   77.2142   33.9203 H   0  0  0  0  0  0  0  0  0  0  0  0
   17.3983   78.3401   32.7128 H   0  0  0  0  0  0  0  0  0  0  0  0
   14.4098   76.3031   32.1368 H   0  0  0  0  0  0  0  0  0  0  0  0
   16.8191   75.1786   31.0943 H   0  0  0  0  0  0  0  0  0  0  0  0
   15.1588   73.6216   32.4444 H   0  0  0  0  0  0  0  0  0  0  0  0
   12.1453   76.6975   35.7374 H   0  0  0  0  0  0  0  0  0  0  0  0
   13.9140   76.6279   34.0352 H   0  0  0  0  0  0  0  0  0  0  0  0
   10.6542   75.3521   37.2785 H   0  0  0  0  0  0  0  0  0  0  0  0
   10.7918   73.5757   37.3681 H   0  0  0  0  0  0  0  0  0  0  0  0
  2  1  1  1
  2  3  2  0
  2  4  1  0
  2  5  1  0
  5  6  1  0
  7  6  1  0
  7  8  1  0
  7  9  1  0
  8 13  1  0
  9 10  1  0
  9 11  1  0
 11 12  1  0
 11 13  1  0
 13 14  1  0
 14 15  1  0
 14 19  1  0
 15 16  1  0
 15 20  2  0
 16 17  2  0
 17 18  1  0
 17 21  1  0
 18 19  2  0
  6 22  1  0
  6 23  1  0
  7 24  1  6
  9 25  1  1
 10 26  1  0
 11 27  1  6
 12 28  1  0
 13 29  1  6
 18 30  1  0
 19 31  1  0
 21 32  1  0
 21 33  1  0
M  CHG  2   1  -1   4  -1
M  END
>  <filename_input>  (8) 
8CSD_C5P_docked.sdf

>  <pdb_id>  (8) 
8CSD_C5P

>  <pose_rank>  (8) 
7

>  <num_atoms_heavy>  (8) 
21

>  <num_torsions>  (8) 
4

>  <pose>  (8) 
[17.417105811782008, 75.51665003625342, 33.47061875050282, -1.8369528820887804, 0.015074354559975281, 1.0610488839460683, 1.3796446339109645, 1.1184355043152925, -1.5542394061138776, 0.8330085351193331]

>  <energy>  (8) 
-542.6276434277246

>  <inter_energy>  (8) 
-583.5140203839842

>  <intra_energy>  (8) 
46.23493822884416

>  <rmsd>  (8) 
3.86154

>  <sdf_rank>  (8) 
0

$$$$

     RDKit          3D

 33 34  0  0  0  0  0  0  0  0999 V2000
   19.7376   77.7079   36.6013 O   0  0  0  0  0  0  0  0  0  0  0  0
   20.0482   76.5964   35.6075 P   0  0  1  0  0  0  0  0  0  0  0  0
   20.5521   77.0848   34.2536 O   0  0  0  0  0  0  0  0  0  0  0  0
   20.7324   75.3350   36.1300 O   0  0  0  0  0  0  0  0  0  0  0  0
   18.3931   76.0622   35.1922 O   0  0  0  0  0  0  0  0  0  0  0  0
   17.8094   76.3460   34.0003 C   0  0  0  0  0  0  0  0  0  0  0  0
   17.3688   74.9189   33.3174 C   0  0  1  0  0  0  0  0  0  0  0  0
   16.6986   74.0899   34.2605 O   0  0  0  0  0  0  0  0  0  0  0  0
   16.3222   75.1875   32.2707 C   0  0  1  0  0  0  0  0  0  0  0  0
   16.7516   75.4639   30.9720 O   0  0  0  0  0  0  0  0  0  0  0  0
   15.5542   73.8124   32.2426 C   0  0  1  0  0  0  0  0  0  0  0  0
   16.3190   72.9717   31.4614 O   0  0  0  0  0  0  0  0  0  0  0  0
   15.6422   73.3894   33.7608 C   0  0  2  0  0  0  0  0  0  0  0  0
   14.3845   73.7618   34.5197 N   0  0  0  0  0  0  0  0  0  0  0  0
   13.3105   72.7429   34.6251 C   0  0  0  0  0  0  0  0  0  0  0  0
   12.1561   73.1640   35.3418 N   0  0  0  0  0  0  0  0  0  0  0  0
   11.9926   74.4117   35.9538 C   0  0  0  0  0  0  0  0  0  0  0  0
   13.0793   75.3561   35.8148 C   0  0  0  0  0  0  0  0  0  0  0  0
   14.2059   75.0056   35.0951 C   0  0  0  0  0  0  0  0  0  0  0  0
   13.4568   71.6528   34.0945 O   0  0  0  0  0  0  0  0  0  0  0  0
   10.8503   74.6893   36.6503 N   0  0  0  0  0  0  0  0  0  0  0  0
   16.9225   76.9776   34.1568 H   0  0  0  0  0  0  0  0  0  0  0  0
   18.5063   76.8908   33.3464 H   0  0  0  0  0  0  0  0  0  0  0  0
   18.2825   74.4460   32.9281 H   0  0  0  0  0  0  0  0  0  0  0  0
   15.7704   76.0999   32.5408 H   0  0  0  0  0  0  0  0  0  0  0  0
   17.5836   75.9994   31.0065 H   0  0  0  0  0  0  0  0  0  0  0  0
   14.5247   73.8168   31.8551 H   0  0  0  0  0  0  0  0  0  0  0  0
   16.8578   72.3795   32.0437 H   0  0  0  0  0  0  0  0  0  0  0  0
   15.7591   72.3002   33.8608 H   0  0  0  0  0  0  0  0  0  0  0  0
   13.0093   76.3501   36.2806 H   0  0  0  0  0  0  0  0  0  0  0  0
   15.0016   75.7554   34.9739 H   0  0  0  0  0  0  0  0  0  0  0  0
   10.7318   75.6083   37.1000 H   0  0  0  0  0  0  0  0  0  0  0  0
   10.1077   73.9795   36.7256 H   0  0  0  0  0  0  0  0  0  0  0  0
  2  1  1  1
  2  3  2  0
  2  4  1  0
  2  5  1  0
  5  6  1  0
  7  6  1  0
  7  8  1  0
  7  9  1  0
  8 13  1  0
  9 10  1  0
  9 11  1  0
 11 12  1  0
 11 13  1  0
 13 14  1  0
 14 15  1  0
 14 19  1  0
 15 16  1  0
 15 20  2  0
 16 17  2  0
 17 18  1  0
 17 21  1  0
 18 19  2  0
  6 22  1  0
  6 23  1  0
  7 24  1  6
  9 25  1  1
 10 26  1  0
 11 27  1  6
 12 28  1  0
 13 29  1  6
 18 30  1  0
 19 31  1  0
 21 32  1  0
 21 33  1  0
M  CHG  2   1  -1   4  -1
M  END
>  <filename_input>  (9) 
8CSD_C5P_docked.sdf

>  <pdb_id>  (9) 
8CSD_C5P

>  <pose_rank>  (9) 
8

>  <num_atoms_heavy>  (9) 
21

>  <num_torsions>  (9) 
4

>  <pose>  (9) 
[17.368817262312948, 74.91894663634068, 33.317359106491445, -2.5918275422618375, 0.12918787705265034, 1.2646390714990312, 0.1733902233754729, 1.792711516491485, -0.6094219703603935, 0.5900168968221278]

>  <energy>  (9) 
-619.0365958054814

>  <inter_energy>  (9) 
-617.6907039089533

>  <intra_energy>  (9) 
3.126330906799617

>  <rmsd>  (9) 
5.01221

>  <sdf_rank>  (9) 
0

$$$$

     RDKit          3D

 33 34  0  0  0  0  0  0  0  0999 V2000
   13.3852   69.1707   30.9716 O   0  0  0  0  0  0  0  0  0  0  0  0
   14.2005   68.9078   32.2309 P   0  0  1  0  0  0  0  0  0  0  0  0
   13.6301   67.8201   33.1347 O   0  0  0  0  0  0  0  0  0  0  0  0
   15.7232   68.9136   32.1159 O   0  0  0  0  0  0  0  0  0  0  0  0
   13.8224   70.3793   33.1738 O   0  0  0  0  0  0  0  0  0  0  0  0
   14.7474   71.0212   33.9317 C   0  0  0  0  0  0  0  0  0  0  0  0
   14.9082   72.5400   33.3283 C   0  0  1  0  0  0  0  0  0  0  0  0
   15.3077   73.4514   34.3459 O   0  0  0  0  0  0  0  0  0  0  0  0
   16.0610   72.5559   32.3619 C   0  0  1  0  0  0  0  0  0  0  0  0
   15.7985   72.2523   31.0254 O   0  0  0  0  0  0  0  0  0  0  0  0
   16.5045   74.0656   32.4357 C   0  0  1  0  0  0  0  0  0  0  0  0
   15.6305   74.7534   31.6202 O   0  0  0  0  0  0  0  0  0  0  0  0
   16.2155   74.3886   33.9536 C   0  0  2  0  0  0  0  0  0  0  0  0
   17.4664   74.2663   34.8001 N   0  0  0  0  0  0  0  0  0  0  0  0
   18.3438   75.4575   34.9176 C   0  0  0  0  0  0  0  0  0  0  0  0
   19.5041   75.2679   35.7185 N   0  0  0  0  0  0  0  0  0  0  0  0
   19.8361   74.0907   36.3982 C   0  0  0  0  0  0  0  0  0  0  0  0
   18.9357   72.9694   36.2430 C   0  0  0  0  0  0  0  0  0  0  0  0
   17.8149   73.0941   35.4440 C   0  0  0  0  0  0  0  0  0  0  0  0
   18.0501   76.4856   34.3277 O   0  0  0  0  0  0  0  0  0  0  0  0
   20.9615   74.0395   37.1714 N   0  0  0  0  0  0  0  0  0  0  0  0
   14.4106   71.0660   34.9780 H   0  0  0  0  0  0  0  0  0  0  0  0
   15.7094   70.4885   33.9045 H   0  0  0  0  0  0  0  0  0  0  0  0
   13.9428   72.8187   32.8806 H   0  0  0  0  0  0  0  0  0  0  0  0
   16.7806   71.7751   32.6490 H   0  0  0  0  0  0  0  0  0  0  0  0
   15.1516   71.5043   30.9778 H   0  0  0  0  0  0  0  0  0  0  0  0
   17.5344   74.3048   32.1324 H   0  0  0  0  0  0  0  0  0  0  0  0
   14.9876   75.2593   32.1778 H   0  0  0  0  0  0  0  0  0  0  0  0
   15.8528   75.4199   34.0754 H   0  0  0  0  0  0  0  0  0  0  0  0
   19.1424   72.0203   36.7593 H   0  0  0  0  0  0  0  0  0  0  0  0
   17.1668   72.2149   35.3137 H   0  0  0  0  0  0  0  0  0  0  0  0
   21.2042   73.1720   37.6708 H   0  0  0  0  0  0  0  0  0  0  0  0
   21.5672   74.8684   37.2548 H   0  0  0  0  0  0  0  0  0  0  0  0
  2  1  1  6
  2  3  2  0
  2  4  1  0
  2  5  1  0
  5  6  1  0
  7  6  1  0
  7  8  1  0
  7  9  1  0
  8 13  1  0
  9 10  1  0
  9 11  1  0
 11 12  1  0
 11 13  1  0
 13 14  1  0
 14 15  1  0
 14 19  1  0
 15 16  1  0
 15 20  2  0
 16 17  2  0
 17 18  1  0
 17 21  1  0
 18 19  2  0
  6 22  1  0
  6 23  1  0
  7 24  1  6
  9 25  1  1
 10 26  1  0
 11 27  1  6
 12 28  1  0
 13 29  1  6
 18 30  1  0
 19 31  1  0
 21 32  1  0
 21 33  1  0
M  CHG  2   1  -1   4  -1
M  END
>  <filename_input>  (10) 
8CSD_C5P_docked.sdf

>  <pdb_id>  (10) 
8CSD_C5P

>  <pose_rank>  (10) 
9

>  <num_atoms_heavy>  (10) 
21

>  <num_torsions>  (10) 
4

>  <pose>  (10) 
[14.90817688978922, 72.54002087180295, 33.32825369795225, 0.19688309202262191, -4.126327461539801, 0.2798305420623871, 0.07614357544960969, 3.6244395850235778, -13.259906695048254, -16.30358497529421]

>  <energy>  (10) 
-514.0317640955411

>  <inter_energy>  (10) 
-504.50257601246693

>  <intra_energy>  (10) 
2.9358430058197884

>  <rmsd>  (10) 
4.5329

>  <sdf_rank>  (10) 
0

$$$$

     RDKit          3D

 33 34  0  0  0  0  0  0  0  0999 V2000
   16.1170   79.3602   34.7216 O   0  0  0  0  0  0  0  0  0  0  0  0
   16.6405   77.9395   34.5564 P   0  0  1  0  0  0  0  0  0  0  0  0
   17.6173   77.7588   33.3994 O   0  0  0  0  0  0  0  0  0  0  0  0
   16.9852   77.1491   35.8168 O   0  0  0  0  0  0  0  0  0  0  0  0
   15.1820   77.1305   33.9119 O   0  0  0  0  0  0  0  0  0  0  0  0
   14.0067   77.0908   34.5895 C   0  0  0  0  0  0  0  0  0  0  0  0
   13.3965   75.5750   34.4256 C   0  0  1  0  0  0  0  0  0  0  0  0
   14.2188   74.7857   33.5731 O   0  0  0  0  0  0  0  0  0  0  0  0
   13.4823   74.8739   35.7538 C   0  0  1  0  0  0  0  0  0  0  0  0
   12.4097   75.0103   36.6360 O   0  0  0  0  0  0  0  0  0  0  0  0
   13.5475   73.3660   35.3029 C   0  0  1  0  0  0  0  0  0  0  0  0
   12.2456   72.9979   35.0357 O   0  0  0  0  0  0  0  0  0  0  0  0
   14.3737   73.4896   33.9635 C   0  0  2  0  0  0  0  0  0  0  0  0
   15.8447   73.2004   34.1842 N   0  0  0  0  0  0  0  0  0  0  0  0
   16.3762   71.9010   33.7026 C   0  0  0  0  0  0  0  0  0  0  0  0
   17.7612   71.6930   33.9520 N   0  0  0  0  0  0  0  0  0  0  0  0
   18.6208   72.6106   34.5661 C   0  0  0  0  0  0  0  0  0  0  0  0
   18.0380   73.8584   35.0082 C   0  0  0  0  0  0  0  0  0  0  0  0
   16.6884   74.0903   34.8217 C   0  0  0  0  0  0  0  0  0  0  0  0
   15.6256   71.1034   33.1627 O   0  0  0  0  0  0  0  0  0  0  0  0
   19.9459   72.3136   34.7172 N   0  0  0  0  0  0  0  0  0  0  0  0
   14.1780   77.3142   35.6529 H   0  0  0  0  0  0  0  0  0  0  0  0
   13.3037   77.8376   34.1920 H   0  0  0  0  0  0  0  0  0  0  0  0
   12.3729   75.6743   34.0352 H   0  0  0  0  0  0  0  0  0  0  0  0
   14.3209   75.2946   36.3281 H   0  0  0  0  0  0  0  0  0  0  0  0
   12.7413   74.9681   37.5678 H   0  0  0  0  0  0  0  0  0  0  0  0
   13.9809   72.6452   36.0119 H   0  0  0  0  0  0  0  0  0  0  0  0
   11.7600   72.8606   35.8874 H   0  0  0  0  0  0  0  0  0  0  0  0
   14.0200   72.7667   33.2137 H   0  0  0  0  0  0  0  0  0  0  0  0
   18.6671   74.6205   35.4914 H   0  0  0  0  0  0  0  0  0  0  0  0
   16.2637   75.0317   35.2003 H   0  0  0  0  0  0  0  0  0  0  0  0
   20.5770   72.9904   35.1695 H   0  0  0  0  0  0  0  0  0  0  0  0
   20.3137   71.4130   34.3789 H   0  0  0  0  0  0  0  0  0  0  0  0
  2  1  1  1
  2  3  2  0
  2  4  1  0
  2  5  1  0
  5  6  1  0
  7  6  1  0
  7  8  1  0
  7  9  1  0
  8 13  1  0
  9 10  1  0
  9 11  1  0
 11 12  1  0
 11 13  1  0
 13 14  1  0
 14 15  1  0
 14 19  1  0
 15 16  1  0
 15 20  2  0
 16 17  2  0
 17 18  1  0
 17 21  1  0
 18 19  2  0
  6 22  1  0
  6 23  1  0
  7 24  1  6
  9 25  1  1
 10 26  1  0
 11 27  1  1
 12 28  1  0
 13 29  1  6
 18 30  1  0
 19 31  1  0
 21 32  1  0
 21 33  1  0
M  CHG  2   1  -1   4  -1
M  END
>  <filename_input>  (11) 
8CSD_C5P_docked.sdf

>  <pdb_id>  (11) 
8CSD_C5P

>  <pose_rank>  (11) 
10

>  <num_atoms_heavy>  (11) 
21

>  <num_torsions>  (11) 
4

>  <pose>  (11) 
[13.39649611909908, 75.57501760151996, 34.42560329784189, 0.37923767877108777, -0.5746884861640705, 2.7980122683554542, -18.45093960655609, -5.370868739486725, -11.453140546016176, -2.3048572733930013]

>  <energy>  (11) 
-486.6078545164546

>  <inter_energy>  (11) 
-501.4868475021105

>  <intra_energy>  (11) 
9.961900106629713

>  <rmsd>  (11) 
6.29808

>  <sdf_rank>  (11) 
0

$$$$

     RDKit          3D

 33 34  0  0  0  0  0  0  0  0999 V2000
   13.7999   73.0327   34.9082 O   0  0  0  0  0  0  0  0  0  0  0  0
   15.0425   72.8767   34.0416 P   0  0  1  0  0  0  0  0  0  0  0  0
   15.9634   71.7358   34.4606 O   0  0  0  0  0  0  0  0  0  0  0  0
   14.8948   73.0612   32.5328 O   0  0  0  0  0  0  0  0  0  0  0  0
   15.9865   74.3000   34.5710 O   0  0  0  0  0  0  0  0  0  0  0  0
   16.0006   75.4679   33.8797 C   0  0  0  0  0  0  0  0  0  0  0  0
   17.4561   76.1796   34.1479 C   0  0  1  0  0  0  0  0  0  0  0  0
   18.4076   75.7747   33.1699 O   0  0  0  0  0  0  0  0  0  0  0  0
   17.3185   77.6604   33.9207 C   0  0  1  0  0  0  0  0  0  0  0  0
   16.9385   78.4556   35.0027 O   0  0  0  0  0  0  0  0  0  0  0  0
   18.7936   78.0506   33.5294 C   0  0  1  0  0  0  0  0  0  0  0  0
   19.4818   78.1563   34.7199 O   0  0  0  0  0  0  0  0  0  0  0  0
   19.2458   76.7597   32.7416 C   0  0  2  0  0  0  0  0  0  0  0  0
   19.0951   76.9360   31.2441 N   0  0  0  0  0  0  0  0  0  0  0  0
   18.3148   75.9158   30.5004 C   0  0  0  0  0  0  0  0  0  0  0  0
   18.2230   76.1392   29.0985 N   0  0  0  0  0  0  0  0  0  0  0  0
   18.7708   77.2299   28.4141 C   0  0  0  0  0  0  0  0  0  0  0  0
   19.5162   78.1882   29.2003 C   0  0  0  0  0  0  0  0  0  0  0  0
   19.6646   77.9935   30.5605 C   0  0  0  0  0  0  0  0  0  0  0  0
   17.8334   74.9672   31.0999 O   0  0  0  0  0  0  0  0  0  0  0  0
   18.5835   77.3581   27.0667 N   0  0  0  0  0  0  0  0  0  0  0  0
   15.8708   75.2705   32.8054 H   0  0  0  0  0  0  0  0  0  0  0  0
   15.1810   76.1238   34.2084 H   0  0  0  0  0  0  0  0  0  0  0  0
   17.7706   75.9086   35.1666 H   0  0  0  0  0  0  0  0  0  0  0  0
   16.5106   77.8386   33.1958 H   0  0  0  0  0  0  0  0  0  0  0  0
   17.1607   77.9907   35.8480 H   0  0  0  0  0  0  0  0  0  0  0  0
   18.9351   78.9780   32.9551 H   0  0  0  0  0  0  0  0  0  0  0  0
   18.8501   78.0593   35.4760 H   0  0  0  0  0  0  0  0  0  0  0  0
   20.3067   76.5359   32.9268 H   0  0  0  0  0  0  0  0  0  0  0  0
   19.9637   79.0693   28.7170 H   0  0  0  0  0  0  0  0  0  0  0  0
   20.2672   78.7177   31.1284 H   0  0  0  0  0  0  0  0  0  0  0  0
   18.9875   78.1617   26.5648 H   0  0  0  0  0  0  0  0  0  0  0  0
   18.0384   76.6512   26.5530 H   0  0  0  0  0  0  0  0  0  0  0  0
  2  1  1  1
  2  3  2  0
  2  4  1  0
  2  5  1  0
  5  6  1  0
  7  6  1  0
  7  8  1  0
  7  9  1  0
  8 13  1  0
  9 10  1  0
  9 11  1  0
 11 12  1  0
 11 13  1  0
 13 14  1  0
 14 15  1  0
 14 19  1  0
 15 16  1  0
 15 20  2  0
 16 17  2  0
 17 18  1  0
 17 21  1  0
 18 19  2  0
  6 22  1  0
  6 23  1  0
  7 24  1  1
  9 25  1  6
 10 26  1  0
 11 27  1  6
 12 28  1  0
 13 29  1  6
 18 30  1  0
 19 31  1  0
 21 32  1  0
 21 33  1  0
M  CHG  2   1  -1   4  -1
M  END
>  <filename_input>  (12) 
8CSD_C5P_docked.sdf

>  <pdb_id>  (12) 
8CSD_C5P

>  <pose_rank>  (12) 
11

>  <num_atoms_heavy>  (12) 
21

>  <num_torsions>  (12) 
4

>  <pose>  (12) 
[17.4560550116126, 76.1796073205767, 34.14793098680521, -1.1992430504098126, -1.5859876804457091, -1.0199066011501468, 2.629876248308814, 2.5491984505766916, 0.8902442994787467, 3.3070739143214345]

>  <energy>  (12) 
-308.52618407900184

>  <inter_energy>  (12) 
-351.688334821818

>  <intra_energy>  (12) 
40.99118221198492

>  <rmsd>  (12) 
6.15166

>  <sdf_rank>  (12) 
0

$$$$

     RDKit          3D

 33 34  0  0  0  0  0  0  0  0999 V2000
   15.6268   66.1070   31.4552 O   0  0  0  0  0  0  0  0  0  0  0  0
   14.7610   67.2718   31.9170 P   0  0  1  0  0  0  0  0  0  0  0  0
   13.6339   67.6379   30.9573 O   0  0  0  0  0  0  0  0  0  0  0  0
   14.3952   67.3531   33.3975 O   0  0  0  0  0  0  0  0  0  0  0  0
   15.8910   68.6343   31.6649 O   0  0  0  0  0  0  0  0  0  0  0  0
   16.5531   69.2352   32.6860 C   0  0  0  0  0  0  0  0  0  0  0  0
   15.4512   70.0977   33.5455 C   0  0  1  0  0  0  0  0  0  0  0  0
   16.0548   70.7008   34.6848 O   0  0  0  0  0  0  0  0  0  0  0  0
   15.0026   71.2700   32.7164 C   0  0  1  0  0  0  0  0  0  0  0  0
   13.9164   71.0877   31.8595 O   0  0  0  0  0  0  0  0  0  0  0  0
   14.5690   72.2909   33.8349 C   0  0  1  0  0  0  0  0  0  0  0  0
   13.3038   71.9046   34.2249 O   0  0  0  0  0  0  0  0  0  0  0  0
   15.6209   71.9616   34.9648 C   0  0  2  0  0  0  0  0  0  0  0  0
   16.7951   72.9190   34.9330 N   0  0  0  0  0  0  0  0  0  0  0  0
   16.5812   74.2964   35.4425 C   0  0  0  0  0  0  0  0  0  0  0  0
   17.7225   75.1428   35.3732 N   0  0  0  0  0  0  0  0  0  0  0  0
   18.9856   74.7632   34.9058 C   0  0  0  0  0  0  0  0  0  0  0  0
   19.1253   73.4056   34.4269 C   0  0  0  0  0  0  0  0  0  0  0  0
   18.0343   72.5573   34.4393 C   0  0  0  0  0  0  0  0  0  0  0  0
   15.4795   74.6246   35.8545 O   0  0  0  0  0  0  0  0  0  0  0  0
   20.0198   75.6560   34.9232 N   0  0  0  0  0  0  0  0  0  0  0  0
   17.0209   68.4756   33.3295 H   0  0  0  0  0  0  0  0  0  0  0  0
   17.3464   69.8928   32.3009 H   0  0  0  0  0  0  0  0  0  0  0  0
   14.6407   69.4082   33.8244 H   0  0  0  0  0  0  0  0  0  0  0  0
   15.8105   71.5501   32.0243 H   0  0  0  0  0  0  0  0  0  0  0  0
   13.0943   70.9497   32.3936 H   0  0  0  0  0  0  0  0  0  0  0  0
   14.5461   73.3568   33.5643 H   0  0  0  0  0  0  0  0  0  0  0  0
   13.2535   71.8893   35.2135 H   0  0  0  0  0  0  0  0  0  0  0  0
   15.1685   72.0517   35.9634 H   0  0  0  0  0  0  0  0  0  0  0  0
   20.0969   73.0493   34.0540 H   0  0  0  0  0  0  0  0  0  0  0  0
   18.1586   71.5417   34.0355 H   0  0  0  0  0  0  0  0  0  0  0  0
   20.9489   75.3747   34.5787 H   0  0  0  0  0  0  0  0  0  0  0  0
   19.8704   76.6103   35.2808 H   0  0  0  0  0  0  0  0  0  0  0  0
  2  1  1  6
  2  3  2  0
  2  4  1  0
  2  5  1  0
  5  6  1  0
  7  6  1  0
  7  8  1  0
  7  9  1  0
  8 13  1  0
  9 10  1  0
  9 11  1  0
 11 12  1  0
 11 13  1  0
 13 14  1  0
 14 15  1  0
 14 19  1  0
 15 16  1  0
 15 20  2  0
 16 17  2  0
 17 18  1  0
 17 21  1  0
 18 19  2  0
  6 22  1  0
  6 23  1  0
  7 24  1  1
  9 25  1  6
 10 26  1  0
 11 27  1  6
 12 28  1  0
 13 29  1  1
 18 30  1  0
 19 31  1  0
 21 32  1  0
 21 33  1  0
M  CHG  2   1  -1   4  -1
M  END
>  <filename_input>  (13) 
8CSD_C5P_docked.sdf

>  <pdb_id>  (13) 
8CSD_C5P

>  <pose_rank>  (13) 
12

>  <num_atoms_heavy>  (13) 
21

>  <num_torsions>  (13) 
4

>  <pose>  (13) 
[15.451218801428102, 70.09768449561491, 33.545527689346955, 0.9490363455958897, -2.757155527910811, -1.4924643979706462, -0.141197036418982, 4.056163864975669, 2.276050400068747, 3.209740561777661]

>  <energy>  (13) 
-443.85363715799554

>  <inter_energy>  (13) 
-449.7478339953665

>  <intra_energy>  (13) 
19.73290006789871

>  <rmsd>  (13) 
4.73589

>  <sdf_rank>  (13) 
0

$$$$

     RDKit          3D

 33 34  0  0  0  0  0  0  0  0999 V2000
   11.4812   75.8658   35.2423 O   0  0  0  0  0  0  0  0  0  0  0  0
   12.0707   74.8628   36.2252 P   0  0  1  0  0  0  0  0  0  0  0  0
   13.4273   75.2626   36.7953 O   0  0  0  0  0  0  0  0  0  0  0  0
   11.1273   74.1938   37.2225 O   0  0  0  0  0  0  0  0  0  0  0  0
   12.5357   73.5484   35.1058 O   0  0  0  0  0  0  0  0  0  0  0  0
   13.7013   72.8634   35.2245 C   0  0  0  0  0  0  0  0  0  0  0  0
   14.4768   72.9600   33.7802 C   0  0  1  0  0  0  0  0  0  0  0  0
   15.0672   74.2433   33.6053 O   0  0  0  0  0  0  0  0  0  0  0  0
   15.6550   72.0247   33.8014 C   0  0  1  0  0  0  0  0  0  0  0  0
   15.4506   70.7059   33.3935 O   0  0  0  0  0  0  0  0  0  0  0  0
   16.6120   72.7107   32.7550 C   0  0  1  0  0  0  0  0  0  0  0  0
   16.1501   72.3238   31.5145 O   0  0  0  0  0  0  0  0  0  0  0  0
   16.2941   74.2352   33.0130 C   0  0  2  0  0  0  0  0  0  0  0  0
   17.3087   74.8691   33.9431 N   0  0  0  0  0  0  0  0  0  0  0  0
   17.5616   76.3251   33.8052 C   0  0  0  0  0  0  0  0  0  0  0  0
   18.5322   76.8502   34.7029 N   0  0  0  0  0  0  0  0  0  0  0  0
   19.2079   76.1176   35.6851 C   0  0  0  0  0  0  0  0  0  0  0  0
   18.9115   74.7043   35.7670 C   0  0  0  0  0  0  0  0  0  0  0  0
   18.0031   74.1412   34.8907 C   0  0  0  0  0  0  0  0  0  0  0  0
   16.9676   76.9638   32.9506 O   0  0  0  0  0  0  0  0  0  0  0  0
   20.0936   76.7414   36.5178 N   0  0  0  0  0  0  0  0  0  0  0  0
   14.3216   73.3110   36.0150 H   0  0  0  0  0  0  0  0  0  0  0  0
   13.5096   71.8140   35.4931 H   0  0  0  0  0  0  0  0  0  0  0  0
   13.7386   72.7351   32.9962 H   0  0  0  0  0  0  0  0  0  0  0  0
   15.9993   71.9049   34.8392 H   0  0  0  0  0  0  0  0  0  0  0  0
   15.3605   70.1245   34.1897 H   0  0  0  0  0  0  0  0  0  0  0  0
   17.6846   72.4764   32.8223 H   0  0  0  0  0  0  0  0  0  0  0  0
   15.3959   71.6921   31.6254 H   0  0  0  0  0  0  0  0  0  0  0  0
   16.3256   74.8090   32.0751 H   0  0  0  0  0  0  0  0  0  0  0  0
   19.4075   74.0796   36.5244 H   0  0  0  0  0  0  0  0  0  0  0  0
   17.8236   73.0576   34.9505 H   0  0  0  0  0  0  0  0  0  0  0  0
   20.5900   76.2004   37.2402 H   0  0  0  0  0  0  0  0  0  0  0  0
   20.2649   77.7526   36.4231 H   0  0  0  0  0  0  0  0  0  0  0  0
  2  1  1  6
  2  3  2  0
  2  4  1  0
  2  5  1  0
  5  6  1  0
  7  6  1  0
  7  8  1  0
  7  9  1  0
  8 13  1  0
  9 10  1  0
  9 11  1  0
 11 12  1  0
 11 13  1  0
 13 14  1  0
 14 15  1  0
 14 19  1  0
 15 16  1  0
 15 20  2  0
 16 17  2  0
 17 18  1  0
 17 21  1  0
 18 19  2  0
  6 22  1  0
  6 23  1  0
  7 24  1  6
  9 25  1  1
 10 26  1  0
 11 27  1  1
 12 28  1  0
 13 29  1  6
 18 30  1  0
 19 31  1  0
 21 32  1  0
 21 33  1  0
M  CHG  2   1  -1   4  -1
M  END
>  <filename_input>  (14) 
8CSD_C5P_docked.sdf

>  <pdb_id>  (14) 
8CSD_C5P

>  <pose_rank>  (14) 
13

>  <num_atoms_heavy>  (14) 
21

>  <num_torsions>  (14) 
4

>  <pose>  (14) 
[14.476799458178892, 72.95997525533834, 33.78018323955875, 0.7796293868111682, -3.0499663019513163, 2.7582078276060504, 1.207455910194154, -3.9850770893097294, 1.324711838539711, 1.1548408474345842]

>  <energy>  (14) 
-495.95050642644213

>  <inter_energy>  (14) 
-510.881109942154

>  <intra_energy>  (14) 
6.258000506133074

>  <rmsd>  (14) 
5.34625

>  <sdf_rank>  (14) 
0

$$$$

     RDKit          3D

 33 34  0  0  0  0  0  0  0  0999 V2000
   19.8225   80.4540   26.5076 O   0  0  0  0  0  0  0  0  0  0  0  0
   20.1087   79.2917   27.4492 P   0  0  1  0  0  0  0  0  0  0  0  0
   20.9599   78.1827   26.8401 O   0  0  0  0  0  0  0  0  0  0  0  0
   20.4186   79.6096   28.9104 O   0  0  0  0  0  0  0  0  0  0  0  0
   18.5007   78.5114   27.4976 O   0  0  0  0  0  0  0  0  0  0  0  0
   17.4875   78.8696   26.6685 C   0  0  0  0  0  0  0  0  0  0  0  0
   16.2289   79.3469   27.6092 C   0  0  1  0  0  0  0  0  0  0  0  0
   15.7337   78.2610   28.3847 O   0  0  0  0  0  0  0  0  0  0  0  0
   16.7373   80.3186   28.6391 C   0  0  1  0  0  0  0  0  0  0  0  0
   16.7605   81.6733   28.3049 O   0  0  0  0  0  0  0  0  0  0  0  0
   15.6832   80.1242   29.7933 C   0  0  1  0  0  0  0  0  0  0  0  0
   14.5841   80.8725   29.4273 O   0  0  0  0  0  0  0  0  0  0  0  0
   15.3727   78.5824   29.6585 C   0  0  2  0  0  0  0  0  0  0  0  0
   16.1859   77.7597   30.6374 N   0  0  0  0  0  0  0  0  0  0  0  0
   15.4599   76.8075   31.5142 C   0  0  0  0  0  0  0  0  0  0  0  0
   16.2844   76.0767   32.4141 N   0  0  0  0  0  0  0  0  0  0  0  0
   17.6780   76.1727   32.4962 C   0  0  0  0  0  0  0  0  0  0  0  0
   18.3221   77.1177   31.6107 C   0  0  0  0  0  0  0  0  0  0  0  0
   17.5587   77.8779   30.7449 C   0  0  0  0  0  0  0  0  0  0  0  0
   14.2442   76.7215   31.4380 O   0  0  0  0  0  0  0  0  0  0  0  0
   18.3686   75.3888   33.3768 N   0  0  0  0  0  0  0  0  0  0  0  0
   17.8076   79.6983   26.0199 H   0  0  0  0  0  0  0  0  0  0  0  0
   17.1944   78.0260   26.0263 H   0  0  0  0  0  0  0  0  0  0  0  0
   15.4595   79.7617   26.9414 H   0  0  0  0  0  0  0  0  0  0  0  0
   17.7965   80.1032   28.8435 H   0  0  0  0  0  0  0  0  0  0  0  0
   16.7698   82.2171   29.1321 H   0  0  0  0  0  0  0  0  0  0  0  0
   15.9875   80.4156   30.8094 H   0  0  0  0  0  0  0  0  0  0  0  0
   14.1163   81.1910   30.2396 H   0  0  0  0  0  0  0  0  0  0  0  0
   14.3146   78.3727   29.8743 H   0  0  0  0  0  0  0  0  0  0  0  0
   19.4161   77.2311   31.6262 H   0  0  0  0  0  0  0  0  0  0  0  0
   18.0701   78.6152   30.1086 H   0  0  0  0  0  0  0  0  0  0  0  0
   19.3944   75.4609   33.4357 H   0  0  0  0  0  0  0  0  0  0  0  0
   17.8634   74.7257   33.9818 H   0  0  0  0  0  0  0  0  0  0  0  0
  2  1  1  6
  2  3  2  0
  2  4  1  0
  2  5  1  0
  5  6  1  0
  7  6  1  0
  7  8  1  0
  7  9  1  0
  8 13  1  0
  9 10  1  0
  9 11  1  0
 11 12  1  0
 11 13  1  0
 13 14  1  0
 14 15  1  0
 14 19  1  0
 15 16  1  0
 15 20  2  0
 16 17  2  0
 17 18  1  0
 17 21  1  0
 18 19  2  0
  6 22  1  0
  6 23  1  0
  7 24  1  6
  9 25  1  1
 10 26  1  0
 11 27  1  1
 12 28  1  0
 13 29  1  6
 18 30  1  0
 19 31  1  0
 21 32  1  0
 21 33  1  0
M  CHG  2   1  -1   4  -1
M  END
>  <filename_input>  (15) 
8CSD_C5P_docked.sdf

>  <pdb_id>  (15) 
8CSD_C5P

>  <pose_rank>  (15) 
14

>  <num_atoms_heavy>  (15) 
21

>  <num_torsions>  (15) 
4

>  <pose>  (15) 
[16.228928437398416, 79.3469373507569, 27.609232421556857, -0.18479837598731286, 3.9350298115957303, 7.0613556519905885, 0.7796620292541038, 12.409779177785921, -4.880390762351444, 5.178352910380816]

>  <energy>  (15) 
-161.4250810779138

>  <inter_energy>  (15) 
-171.28314501883662

>  <intra_energy>  (15) 
10.094079791193534

>  <rmsd>  (15) 
8.58146

>  <sdf_rank>  (15) 
0

$$$$

     RDKit          3D

 33 34  0  0  0  0  0  0  0  0999 V2000
   16.6986   71.0595   32.3609 O   0  0  0  0  0  0  0  0  0  0  0  0
   15.7307   71.6139   33.3979 P   0  0  1  0  0  0  0  0  0  0  0  0
   14.3765   70.9135   33.4332 O   0  0  0  0  0  0  0  0  0  0  0  0
   16.2876   72.0035   34.7654 O   0  0  0  0  0  0  0  0  0  0  0  0
   15.2981   73.1725   32.6358 O   0  0  0  0  0  0  0  0  0  0  0  0
   15.9683   73.6769   31.5688 C   0  0  0  0  0  0  0  0  0  0  0  0
   16.3565   75.2326   31.9237 C   0  0  1  0  0  0  0  0  0  0  0  0
   16.5164   75.4089   33.3270 O   0  0  0  0  0  0  0  0  0  0  0  0
   17.7232   75.5278   31.3687 C   0  0  1  0  0  0  0  0  0  0  0  0
   17.8090   76.0002   30.0584 O   0  0  0  0  0  0  0  0  0  0  0  0
   18.2040   76.6798   32.3294 C   0  0  1  0  0  0  0  0  0  0  0  0
   17.6112   77.8326   31.8586 O   0  0  0  0  0  0  0  0  0  0  0  0
   17.5399   76.2318   33.6896 C   0  0  2  0  0  0  0  0  0  0  0  0
   18.5150   75.4705   34.5648 N   0  0  0  0  0  0  0  0  0  0  0  0
   17.9570   74.5670   35.6016 C   0  0  0  0  0  0  0  0  0  0  0  0
   18.9289   73.8929   36.3920 N   0  0  0  0  0  0  0  0  0  0  0  0
   20.3154   73.9997   36.2367 C   0  0  0  0  0  0  0  0  0  0  0  0
   20.7912   74.8952   35.2053 C   0  0  0  0  0  0  0  0  0  0  0  0
   19.8849   75.6009   34.4368 C   0  0  0  0  0  0  0  0  0  0  0  0
   16.7467   74.4713   35.7327 O   0  0  0  0  0  0  0  0  0  0  0  0
   21.1528   73.2709   37.0334 N   0  0  0  0  0  0  0  0  0  0  0  0
   16.8829   73.0929   31.3889 H   0  0  0  0  0  0  0  0  0  0  0  0
   15.3476   73.6286   30.6620 H   0  0  0  0  0  0  0  0  0  0  0  0
   15.5585   75.8707   31.5160 H   0  0  0  0  0  0  0  0  0  0  0  0
   18.3025   74.5937   31.3260 H   0  0  0  0  0  0  0  0  0  0  0  0
   17.9859   76.9742   30.0696 H   0  0  0  0  0  0  0  0  0  0  0  0
   19.2878   76.8479   32.4134 H   0  0  0  0  0  0  0  0  0  0  0  0
   17.3236   78.3918   32.6233 H   0  0  0  0  0  0  0  0  0  0  0  0
   17.2084   77.1036   34.2727 H   0  0  0  0  0  0  0  0  0  0  0  0
   21.8711   75.0142   35.0331 H   0  0  0  0  0  0  0  0  0  0  0  0
   20.2739   76.3026   33.6843 H   0  0  0  0  0  0  0  0  0  0  0  0
   22.1731   73.3509   36.9175 H   0  0  0  0  0  0  0  0  0  0  0  0
   20.7636   72.6415   37.7498 H   0  0  0  0  0  0  0  0  0  0  0  0
  2  1  1  6
  2  3  2  0
  2  4  1  0
  2  5  1  0
  5  6  1  0
  7  6  1  0
  7  8  1  0
  7  9  1  0
  8 13  1  0
  9 10  1  0
  9 11  1  0
 11 12  1  0
 11 13  1  0
 13 14  1  0
 14 15  1  0
 14 19  1  0
 15 16  1  0
 15 20  2  0
 16 17  2  0
 17 18  1  0
 17 21  1  0
 18 19  2  0
  6 22  1  0
  6 23  1  0
  7 24  1  6
  9 25  1  6
 10 26  1  0
 11 27  1  1
 12 28  1  0
 13 29  1  1
 18 30  1  0
 19 31  1  0
 21 32  1  0
 21 33  1  0
M  CHG  2   1  -1   4  -1
M  END
>  <filename_input>  (16) 
8CSD_C5P_docked.sdf

>  <pdb_id>  (16) 
8CSD_C5P

>  <pose_rank>  (16) 
15

>  <num_atoms_heavy>  (16) 
21

>  <num_torsions>  (16) 
4

>  <pose>  (16) 
[16.356456235055685, 75.23264984538528, 31.923716158074548, 0.3571702511829993, 1.8622727982356297, 0.3522085124920565, -4.197951019909454, 1.4770637037722212, 1.251781368582333, 4.8133235655443825]

>  <energy>  (16) 
-383.24556484088214

>  <inter_energy>  (16) 
-411.28545431324164

>  <intra_energy>  (16) 
40.2776986297145

>  <rmsd>  (16) 
4.97099

>  <sdf_rank>  (16) 
0

$$$$

     RDKit          3D

 33 34  0  0  0  0  0  0  0  0999 V2000
   17.4289   76.2377   27.1371 O   0  0  0  0  0  0  0  0  0  0  0  0
   18.7695   76.7826   27.6117 P   0  0  1  0  0  0  0  0  0  0  0  0
   19.8256   75.7147   27.8758 O   0  0  0  0  0  0  0  0  0  0  0  0
   19.2970   78.0602   26.9623 O   0  0  0  0  0  0  0  0  0  0  0  0
   18.3467   77.2753   29.2777 O   0  0  0  0  0  0  0  0  0  0  0  0
   18.1568   76.3803   30.2802 C   0  0  0  0  0  0  0  0  0  0  0  0
   17.0400   77.0171   31.3019 C   0  0  1  0  0  0  0  0  0  0  0  0
   16.4260   75.9977   32.0828 O   0  0  0  0  0  0  0  0  0  0  0  0
   17.7475   77.8694   32.3199 C   0  0  1  0  0  0  0  0  0  0  0  0
   17.9613   79.2137   32.0124 O   0  0  0  0  0  0  0  0  0  0  0  0
   16.7403   77.8052   33.5293 C   0  0  1  0  0  0  0  0  0  0  0  0
   15.7517   78.7232   33.2430 O   0  0  0  0  0  0  0  0  0  0  0  0
   16.1886   76.3337   33.3817 C   0  0  2  0  0  0  0  0  0  0  0  0
   16.9171   75.3683   34.2948 N   0  0  0  0  0  0  0  0  0  0  0  0
   16.2714   74.0629   34.5811 C   0  0  0  0  0  0  0  0  0  0  0  0
   17.0060   73.2118   35.4527 N   0  0  0  0  0  0  0  0  0  0  0  0
   18.2583   73.5035   36.0048 C   0  0  0  0  0  0  0  0  0  0  0  0
   18.8316   74.7916   35.6820 C   0  0  0  0  0  0  0  0  0  0  0  0
   18.1377   75.6681   34.8694 C   0  0  0  0  0  0  0  0  0  0  0  0
   15.1807   73.8080   34.0947 O   0  0  0  0  0  0  0  0  0  0  0  0
   18.8869   72.5878   36.8006 N   0  0  0  0  0  0  0  0  0  0  0  0
   17.7908   75.4277   29.8695 H   0  0  0  0  0  0  0  0  0  0  0  0
   19.1008   76.1842   30.8099 H   0  0  0  0  0  0  0  0  0  0  0  0
   16.3087   77.5638   30.6885 H   0  0  0  0  0  0  0  0  0  0  0  0
   18.7702   77.4887   32.4581 H   0  0  0  0  0  0  0  0  0  0  0  0
   18.0442   79.7347   32.8502 H   0  0  0  0  0  0  0  0  0  0  0  0
   17.1407   78.0171   34.5317 H   0  0  0  0  0  0  0  0  0  0  0  0
   15.3731   79.0746   34.0876 H   0  0  0  0  0  0  0  0  0  0  0  0
   15.1242   76.2822   33.6544 H   0  0  0  0  0  0  0  0  0  0  0  0
   19.8170   75.0728   36.0821 H   0  0  0  0  0  0  0  0  0  0  0  0
   18.5797   76.6554   34.6698 H   0  0  0  0  0  0  0  0  0  0  0  0
   19.8086   72.8044   37.2060 H   0  0  0  0  0  0  0  0  0  0  0  0
   18.4390   71.6809   36.9950 H   0  0  0  0  0  0  0  0  0  0  0  0
  2  1  1  6
  2  3  2  0
  2  4  1  0
  2  5  1  0
  5  6  1  0
  7  6  1  0
  7  8  1  0
  7  9  1  0
  8 13  1  0
  9 10  1  0
  9 11  1  0
 11 12  1  0
 11 13  1  0
 13 14  1  0
 14 15  1  0
 14 19  1  0
 15 16  1  0
 15 20  2  0
 16 17  2  0
 17 18  1  0
 17 21  1  0
 18 19  2  0
  6 22  1  0
  6 23  1  0
  7 24  1  6
  9 25  1  1
 10 26  1  0
 11 27  1  1
 12 28  1  0
 13 29  1  1
 18 30  1  0
 19 31  1  0
 21 32  1  0
 21 33  1  0
M  CHG  2   1  -1   4  -1
M  END
>  <filename_input>  (17) 
8CSD_C5P_docked.sdf

>  <pdb_id>  (17) 
8CSD_C5P

>  <pose_rank>  (17) 
16

>  <num_atoms_heavy>  (17) 
21

>  <num_torsions>  (17) 
4

>  <pose>  (17) 
[17.039993440400472, 77.01713703778796, 31.301949824057537, -0.23538648828536798, -2.386629218969802, -3.907798174611571, 1.3820618622591925, -2.539073321755068, -5.358859172216822, 0.024919481687633582]

>  <energy>  (17) 
-422.67307418814556

>  <inter_energy>  (17) 
-408.06677931929306

>  <intra_energy>  (17) 
5.973159163863994

>  <rmsd>  (17) 
6.27619

>  <sdf_rank>  (17) 
0

$$$$

     RDKit          3D

 33 34  0  0  0  0  0  0  0  0999 V2000
   12.6427   71.7451   41.3693 O   0  0  0  0  0  0  0  0  0  0  0  0
   12.2504   73.1477   41.8147 P   0  0  1  0  0  0  0  0  0  0  0  0
   10.8626   73.2450   42.4391 O   0  0  0  0  0  0  0  0  0  0  0  0
   13.3162   74.0150   42.4810 O   0  0  0  0  0  0  0  0  0  0  0  0
   11.9751   73.9255   40.2284 O   0  0  0  0  0  0  0  0  0  0  0  0
   12.9498   74.0426   39.2912 C   0  0  0  0  0  0  0  0  0  0  0  0
   12.3488   74.9616   38.0701 C   0  0  1  0  0  0  0  0  0  0  0  0
   13.3976   75.4691   37.2526 O   0  0  0  0  0  0  0  0  0  0  0  0
   11.5670   74.0756   37.1390 C   0  0  1  0  0  0  0  0  0  0  0  0
   10.2122   73.8774   37.4083 O   0  0  0  0  0  0  0  0  0  0  0  0
   11.6782   74.8754   35.7865 C   0  0  1  0  0  0  0  0  0  0  0  0
   10.7274   75.8717   35.8608 O   0  0  0  0  0  0  0  0  0  0  0  0
   13.1288   75.4840   35.9170 C   0  0  2  0  0  0  0  0  0  0  0  0
   14.1563   74.6444   35.1851 N   0  0  0  0  0  0  0  0  0  0  0  0
   15.4605   75.2730   34.8585 C   0  0  0  0  0  0  0  0  0  0  0  0
   16.3718   74.4307   34.1631 N   0  0  0  0  0  0  0  0  0  0  0  0
   16.1367   73.0964   33.8134 C   0  0  0  0  0  0  0  0  0  0  0  0
   14.8462   72.5456   34.1646 C   0  0  0  0  0  0  0  0  0  0  0  0
   13.9135   73.3373   34.8075 C   0  0  0  0  0  0  0  0  0  0  0  0
   15.6658   76.4361   35.1687 O   0  0  0  0  0  0  0  0  0  0  0  0
   17.1063   72.3730   33.1780 N   0  0  0  0  0  0  0  0  0  0  0  0
   13.8345   74.5292   39.7276 H   0  0  0  0  0  0  0  0  0  0  0  0
   13.2524   73.0525   38.9196 H   0  0  0  0  0  0  0  0  0  0  0  0
   11.7556   75.7671   38.5276 H   0  0  0  0  0  0  0  0  0  0  0  0
   11.9740   73.0549   37.1888 H   0  0  0  0  0  0  0  0  0  0  0  0
   10.0701   73.8566   38.3879 H   0  0  0  0  0  0  0  0  0  0  0  0
   11.5290   74.3126   34.8532 H   0  0  0  0  0  0  0  0  0  0  0  0
   10.5347   76.0737   36.8106 H   0  0  0  0  0  0  0  0  0  0  0  0
   13.1750   76.4914   35.4775 H   0  0  0  0  0  0  0  0  0  0  0  0
   14.6079   71.4998   33.9207 H   0  0  0  0  0  0  0  0  0  0  0  0
   12.9269   72.9048   35.0301 H   0  0  0  0  0  0  0  0  0  0  0  0
   16.9312   71.3910   32.9214 H   0  0  0  0  0  0  0  0  0  0  0  0
   18.0122   72.8098   32.9557 H   0  0  0  0  0  0  0  0  0  0  0  0
  2  1  1  6
  2  3  2  0
  2  4  1  0
  2  5  1  0
  5  6  1  0
  7  6  1  0
  7  8  1  0
  7  9  1  0
  8 13  1  0
  9 10  1  0
  9 11  1  0
 11 12  1  0
 11 13  1  0
 13 14  1  0
 14 15  1  0
 14 19  1  0
 15 16  1  0
 15 20  2  0
 16 17  2  0
 17 18  1  0
 17 21  1  0
 18 19  2  0
  6 22  1  0
  6 23  1  0
  7 24  1  1
  9 25  1  6
 10 26  1  0
 11 27  1  6
 12 28  1  0
 13 29  1  6
 18 30  1  0
 19 31  1  0
 21 32  1  0
 21 33  1  0
M  CHG  2   1  -1   4  -1
M  END
>  <filename_input>  (18) 
8CSD_C5P_docked.sdf

>  <pdb_id>  (18) 
8CSD_C5P

>  <pose_rank>  (18) 
17

>  <num_atoms_heavy>  (18) 
21

>  <num_torsions>  (18) 
4

>  <pose>  (18) 
[12.348780173895307, 74.96161362881509, 38.070119707293, -0.008058233945160986, -2.4812993434534496, 1.0518747710926764, 1.3771403606316377, -2.4757627014924237, 0.49177589955489015, 3.9545605015593015]

>  <energy>  (18) 
-334.93206773191054

>  <inter_energy>  (18) 
-339.42879626038973

>  <intra_energy>  (18) 
6.109178659062257

>  <rmsd>  (18) 
6.67601

>  <sdf_rank>  (18) 
0

$$$$

     RDKit          3D

 33 34  0  0  0  0  0  0  0  0999 V2000
   15.5079   74.0289   26.8588 O   0  0  0  0  0  0  0  0  0  0  0  0
   16.7572   74.8999   26.8599 P   0  0  1  0  0  0  0  0  0  0  0  0
   18.0646   74.1257   26.9886 O   0  0  0  0  0  0  0  0  0  0  0  0
   16.8064   76.0879   25.9016 O   0  0  0  0  0  0  0  0  0  0  0  0
   16.6310   75.6441   28.4809 O   0  0  0  0  0  0  0  0  0  0  0  0
   17.7011   76.1655   29.1327 C   0  0  0  0  0  0  0  0  0  0  0  0
   17.1272   77.2169   30.2561 C   0  0  1  0  0  0  0  0  0  0  0  0
   16.4451   76.5261   31.2970 O   0  0  0  0  0  0  0  0  0  0  0  0
   18.2934   77.8581   30.9575 C   0  0  1  0  0  0  0  0  0  0  0  0
   18.8264   79.0247   30.4077 O   0  0  0  0  0  0  0  0  0  0  0  0
   17.6514   78.2291   32.3472 C   0  0  1  0  0  0  0  0  0  0  0  0
   16.9545   79.4006   32.1376 O   0  0  0  0  0  0  0  0  0  0  0  0
   16.6553   77.0212   32.5487 C   0  0  2  0  0  0  0  0  0  0  0  0
   17.2553   75.9407   33.4256 N   0  0  0  0  0  0  0  0  0  0  0  0
   17.1847   76.1225   34.8969 C   0  0  0  0  0  0  0  0  0  0  0  0
   17.7760   75.0755   35.6570 N   0  0  0  0  0  0  0  0  0  0  0  0
   18.3640   73.9216   35.1269 C   0  0  0  0  0  0  0  0  0  0  0  0
   18.3962   73.8069   33.6854 C   0  0  0  0  0  0  0  0  0  0  0  0
   17.8678   74.8170   32.9040 C   0  0  0  0  0  0  0  0  0  0  0  0
   16.6670   77.1278   35.3579 O   0  0  0  0  0  0  0  0  0  0  0  0
   18.8667   72.9632   35.9609 N   0  0  0  0  0  0  0  0  0  0  0  0
   18.2694   75.3625   29.6250 H   0  0  0  0  0  0  0  0  0  0  0  0
   18.3730   76.6779   28.4285 H   0  0  0  0  0  0  0  0  0  0  0  0
   16.4706   77.9284   29.7338 H   0  0  0  0  0  0  0  0  0  0  0  0
   19.1498   77.1681   30.9339 H   0  0  0  0  0  0  0  0  0  0  0  0
   19.1053   79.6351   31.1356 H   0  0  0  0  0  0  0  0  0  0  0  0
   18.3348   78.3709   33.1975 H   0  0  0  0  0  0  0  0  0  0  0  0
   16.7153   79.8028   33.0100 H   0  0  0  0  0  0  0  0  0  0  0  0
   15.7304   77.3511   33.0445 H   0  0  0  0  0  0  0  0  0  0  0  0
   18.8400   72.9183   33.2125 H   0  0  0  0  0  0  0  0  0  0  0  0
   17.9383   74.7215   31.8104 H   0  0  0  0  0  0  0  0  0  0  0  0
   19.2991   72.1145   35.5687 H   0  0  0  0  0  0  0  0  0  0  0  0
   18.8133   73.0893   36.9817 H   0  0  0  0  0  0  0  0  0  0  0  0
  2  1  1  6
  2  3  2  0
  2  4  1  0
  2  5  1  0
  5  6  1  0
  7  6  1  0
  7  8  1  0
  7  9  1  0
  8 13  1  0
  9 10  1  0
  9 11  1  0
 11 12  1  0
 11 13  1  0
 13 14  1  0
 14 15  1  0
 14 19  1  0
 15 16  1  0
 15 20  2  0
 16 17  2  0
 17 18  1  0
 17 21  1  0
 18 19  2  0
  6 22  1  0
  6 23  1  0
  7 24  1  6
  9 25  1  1
 10 26  1  0
 11 27  1  1
 12 28  1  0
 13 29  1  1
 18 30  1  0
 19 31  1  0
 21 32  1  0
 21 33  1  0
M  CHG  2   1  -1   4  -1
M  END
>  <filename_input>  (19) 
8CSD_C5P_docked.sdf

>  <pdb_id>  (19) 
8CSD_C5P

>  <pose_rank>  (19) 
18

>  <num_atoms_heavy>  (19) 
21

>  <num_torsions>  (19) 
4

>  <pose>  (19) 
[17.12718906350175, 77.21694175565784, 30.256077230993405, 0.30708108761681274, 1.0916248349122282, 1.0862889558524385, -0.008497929990100428, 2.1761898952653334, 0.010154219458944534, 1.4939222457512915]

>  <energy>  (19) 
-376.1196100846466

>  <inter_energy>  (19) 
-384.65041890775143

>  <intra_energy>  (19) 
3.3109488147710415

>  <rmsd>  (19) 
5.95474

>  <sdf_rank>  (19) 
0

$$$$

     RDKit          3D

 33 34  0  0  0  0  0  0  0  0999 V2000
   11.1074   80.9220   28.2949 O   0  0  0  0  0  0  0  0  0  0  0  0
   10.2941   82.0591   27.6907 P   0  0  1  0  0  0  0  0  0  0  0  0
   11.1300   83.1450   27.0217 O   0  0  0  0  0  0  0  0  0  0  0  0
    8.9972   81.7088   26.9645 O   0  0  0  0  0  0  0  0  0  0  0  0
    9.7570   82.8972   29.1760 O   0  0  0  0  0  0  0  0  0  0  0  0
    9.3506   82.2310   30.2865 C   0  0  0  0  0  0  0  0  0  0  0  0
   10.1500   82.8776   31.5670 C   0  0  1  0  0  0  0  0  0  0  0  0
    9.2409   83.2590   32.5936 O   0  0  0  0  0  0  0  0  0  0  0  0
   10.9831   81.8020   32.2091 C   0  0  1  0  0  0  0  0  0  0  0  0
   12.2807   81.6083   31.7336 O   0  0  0  0  0  0  0  0  0  0  0  0
   11.0856   82.3333   33.6885 C   0  0  1  0  0  0  0  0  0  0  0  0
   12.0795   83.2893   33.6756 O   0  0  0  0  0  0  0  0  0  0  0  0
    9.6698   83.0093   33.8625 C   0  0  2  0  0  0  0  0  0  0  0  0
    8.6890   82.0847   34.5549 N   0  0  0  0  0  0  0  0  0  0  0  0
    8.7473   81.9942   36.0351 C   0  0  0  0  0  0  0  0  0  0  0  0
    7.8053   81.1006   36.6163 N   0  0  0  0  0  0  0  0  0  0  0  0
    6.8489   80.3607   35.9122 C   0  0  0  0  0  0  0  0  0  0  0  0
    6.8452   80.4983   34.4723 C   0  0  0  0  0  0  0  0  0  0  0  0
    7.7667   81.3261   33.8592 C   0  0  0  0  0  0  0  0  0  0  0  0
    9.5794   82.6442   36.6484 O   0  0  0  0  0  0  0  0  0  0  0  0
    5.9684   79.5616   36.5853 N   0  0  0  0  0  0  0  0  0  0  0  0
    8.2655   82.3512   30.4211 H   0  0  0  0  0  0  0  0  0  0  0  0
    9.5670   81.1563   30.1958 H   0  0  0  0  0  0  0  0  0  0  0  0
   10.7317   83.7328   31.1923 H   0  0  0  0  0  0  0  0  0  0  0  0
   10.5114   80.8254   32.0257 H   0  0  0  0  0  0  0  0  0  0  0  0
   12.9021   81.5155   32.4986 H   0  0  0  0  0  0  0  0  0  0  0  0
   11.3118   81.5979   34.4746 H   0  0  0  0  0  0  0  0  0  0  0  0
   12.3236   83.5241   34.6058 H   0  0  0  0  0  0  0  0  0  0  0  0
    9.7388   83.9156   34.4821 H   0  0  0  0  0  0  0  0  0  0  0  0
    6.1113   79.9459   33.8672 H   0  0  0  0  0  0  0  0  0  0  0  0
    7.7659   81.3842   32.7607 H   0  0  0  0  0  0  0  0  0  0  0  0
    5.2652   79.0177   36.0651 H   0  0  0  0  0  0  0  0  0  0  0  0
    6.0079   79.5030   37.6129 H   0  0  0  0  0  0  0  0  0  0  0  0
  2  1  1  1
  2  3  2  0
  2  4  1  0
  2  5  1  0
  5  6  1  0
  7  6  1  0
  7  8  1  0
  7  9  1  0
  8 13  1  0
  9 10  1  0
  9 11  1  0
 11 12  1  0
 11 13  1  0
 13 14  1  0
 14 15  1  0
 14 19  1  0
 15 16  1  0
 15 20  2  0
 16 17  2  0
 17 18  1  0
 17 21  1  0
 18 19  2  0
  6 22  1  0
  6 23  1  0
  7 24  1  6
  9 25  1  1
 10 26  1  0
 11 27  1  1
 12 28  1  0
 13 29  1  1
 18 30  1  0
 19 31  1  0
 21 32  1  0
 21 33  1  0
M  CHG  2   1  -1   4  -1
M  END
>  <filename_input>  (20) 
8CSD_C5P_docked.sdf

>  <pdb_id>  (20) 
8CSD_C5P

>  <pose_rank>  (20) 
19

>  <num_atoms_heavy>  (20) 
21

>  <num_torsions>  (20) 
4

>  <pose>  (20) 
[10.150048010239065, 82.87762529048432, 31.56698042579395, -4.46422849348373, -2.5451996897891953, 0.21521707906934587, 6.257129618985461, 9.481585316269427, -13.048388381432638, -1.9775156583031726]

>  <energy>  (20) 
-212.31238623175489

>  <inter_energy>  (20) 
-206.18544784474295

>  <intra_energy>  (20) 
3.457356832906237

>  <rmsd>  (20) 
10.8069

>  <sdf_rank>  (20) 
0

$$$$

     RDKit          3D

 33 34  0  0  0  0  0  0  0  0999 V2000
    4.9633   65.9592   40.1884 O   0  0  0  0  0  0  0  0  0  0  0  0
    6.1180   65.4989   39.3085 P   0  0  1  0  0  0  0  0  0  0  0  0
    5.9071   64.1380   38.6537 O   0  0  0  0  0  0  0  0  0  0  0  0
    6.8066   66.5367   38.4247 O   0  0  0  0  0  0  0  0  0  0  0  0
    7.3362   65.1016   40.5556 O   0  0  0  0  0  0  0  0  0  0  0  0
    8.6602   65.3509   40.3917 C   0  0  0  0  0  0  0  0  0  0  0  0
    9.4435   64.7158   41.6879 C   0  0  1  0  0  0  0  0  0  0  0  0
   10.7619   65.2417   41.7926 O   0  0  0  0  0  0  0  0  0  0  0  0
    8.7670   65.1953   42.9432 C   0  0  1  0  0  0  0  0  0  0  0  0
    7.7082   64.4379   43.4458 O   0  0  0  0  0  0  0  0  0  0  0  0
    9.9504   65.1181   43.9799 C   0  0  1  0  0  0  0  0  0  0  0  0
   10.0290   63.7951   44.3614 O   0  0  0  0  0  0  0  0  0  0  0  0
   11.1766   65.5035   43.0637 C   0  0  2  0  0  0  0  0  0  0  0  0
   11.5289   66.9721   43.1882 N   0  0  0  0  0  0  0  0  0  0  0  0
   12.8738   67.4040   42.7326 C   0  0  0  0  0  0  0  0  0  0  0  0
   13.1395   68.7928   42.8882 N   0  0  0  0  0  0  0  0  0  0  0  0
   12.2392   69.7388   43.3909 C   0  0  0  0  0  0  0  0  0  0  0  0
   10.9451   69.2504   43.8135 C   0  0  0  0  0  0  0  0  0  0  0  0
   10.6545   67.9027   43.7168 C   0  0  0  0  0  0  0  0  0  0  0  0
   13.6565   66.5779   42.2898 O   0  0  0  0  0  0  0  0  0  0  0  0
   12.5951   71.0563   43.4574 N   0  0  0  0  0  0  0  0  0  0  0  0
    9.0202   64.8780   39.4661 H   0  0  0  0  0  0  0  0  0  0  0  0
    8.8455   66.4327   40.3177 H   0  0  0  0  0  0  0  0  0  0  0  0
    9.4437   63.6225   41.5672 H   0  0  0  0  0  0  0  0  0  0  0  0
    8.2942   66.1688   42.7465 H   0  0  0  0  0  0  0  0  0  0  0  0
    7.7312   64.4544   44.4354 H   0  0  0  0  0  0  0  0  0  0  0  0
    9.8730   65.7427   44.8820 H   0  0  0  0  0  0  0  0  0  0  0  0
   10.0325   63.7363   45.3496 H   0  0  0  0  0  0  0  0  0  0  0  0
   12.0761   64.9389   43.3503 H   0  0  0  0  0  0  0  0  0  0  0  0
   10.1944   69.9495   44.2107 H   0  0  0  0  0  0  0  0  0  0  0  0
    9.6768   67.5526   44.0794 H   0  0  0  0  0  0  0  0  0  0  0  0
   11.9310   71.7511   43.8278 H   0  0  0  0  0  0  0  0  0  0  0  0
   13.5275   71.3547   43.1372 H   0  0  0  0  0  0  0  0  0  0  0  0
  2  1  1  1
  2  3  2  0
  2  4  1  0
  2  5  1  0
  5  6  1  0
  7  6  1  0
  7  8  1  0
  7  9  1  0
  8 13  1  0
  9 10  1  0
  9 11  1  0
 11 12  1  0
 11 13  1  0
 13 14  1  0
 14 15  1  0
 14 19  1  0
 15 16  1  0
 15 20  2  0
 16 17  2  0
 17 18  1  0
 17 21  1  0
 18 19  2  0
  6 22  1  0
  6 23  1  0
  7 24  1  6
  9 25  1  6
 10 26  1  0
 11 27  1  1
 12 28  1  0
 13 29  1  1
 18 30  1  0
 19 31  1  0
 21 32  1  0
 21 33  1  0
M  CHG  2   1  -1   4  -1
M  END
>  <filename_input>  (21) 
8CSD_C5P_docked.sdf

>  <pdb_id>  (21) 
8CSD_C5P

>  <pose_rank>  (21) 
20

>  <num_atoms_heavy>  (21) 
21

>  <num_torsions>  (21) 
4

>  <pose>  (21) 
[9.443450405692463, 64.71581578593373, 41.68790474891058, -0.4245881487684902, 1.4748376559596676, 3.7606440883779384, -4.904147854131275, -1.886284923829719, 0.46850283351309135, 2.528433814536378]

>  <energy>  (21) 
-190.61746831933937

>  <inter_energy>  (21) 
-206.19709938430682

>  <intra_energy>  (21) 
11.024195574816702

>  <rmsd>  (21) 
12.7472

>  <sdf_rank>  (21) 
0

$$$$

     RDKit          3D

 33 34  0  0  0  0  0  0  0  0999 V2000
   11.4300   83.5428   33.5331 O   0  0  0  0  0  0  0  0  0  0  0  0
   11.7782   82.1067   33.1645 P   0  0  1  0  0  0  0  0  0  0  0  0
   11.9602   81.8668   31.6696 O   0  0  0  0  0  0  0  0  0  0  0  0
   12.7584   81.3520   34.0598 O   0  0  0  0  0  0  0  0  0  0  0  0
   10.2058   81.3075   33.4576 O   0  0  0  0  0  0  0  0  0  0  0  0
   10.0709   79.9586   33.5236 C   0  0  0  0  0  0  0  0  0  0  0  0
    8.5560   79.5909   33.0070 C   0  0  1  0  0  0  0  0  0  0  0  0
    7.6873   79.3523   34.1090 O   0  0  0  0  0  0  0  0  0  0  0  0
    7.9649   80.8042   32.3424 C   0  0  1  0  0  0  0  0  0  0  0  0
    8.1891   80.9759   30.9758 O   0  0  0  0  0  0  0  0  0  0  0  0
    6.4243   80.5499   32.5504 C   0  0  1  0  0  0  0  0  0  0  0  0
    6.0550   79.6583   31.5652 O   0  0  0  0  0  0  0  0  0  0  0  0
    6.4254   79.8447   33.9627 C   0  0  2  0  0  0  0  0  0  0  0  0
    6.1333   80.8267   35.0792 N   0  0  0  0  0  0  0  0  0  0  0  0
    5.7262   80.2781   36.3968 C   0  0  0  0  0  0  0  0  0  0  0  0
    5.4584   81.2566   37.3941 N   0  0  0  0  0  0  0  0  0  0  0  0
    5.5818   82.6402   37.2257 C   0  0  0  0  0  0  0  0  0  0  0  0
    5.9857   83.1067   35.9175 C   0  0  0  0  0  0  0  0  0  0  0  0
    6.2204   82.1950   34.9055 C   0  0  0  0  0  0  0  0  0  0  0  0
    5.6236   79.0702   36.5434 O   0  0  0  0  0  0  0  0  0  0  0  0
    5.3334   83.4831   38.2720 N   0  0  0  0  0  0  0  0  0  0  0  0
   10.8168   79.4741   32.8764 H   0  0  0  0  0  0  0  0  0  0  0  0
   10.2276   79.6024   34.5524 H   0  0  0  0  0  0  0  0  0  0  0  0
    8.6382   78.7134   32.3488 H   0  0  0  0  0  0  0  0  0  0  0  0
    8.4186   81.7076   32.7759 H   0  0  0  0  0  0  0  0  0  0  0  0
    8.9679   81.5722   30.8415 H   0  0  0  0  0  0  0  0  0  0  0  0
    5.7577   81.4237   32.5053 H   0  0  0  0  0  0  0  0  0  0  0  0
    5.7115   78.8289   31.9825 H   0  0  0  0  0  0  0  0  0  0  0  0
    5.6488   79.0675   34.0161 H   0  0  0  0  0  0  0  0  0  0  0  0
    6.1056   84.1837   35.7285 H   0  0  0  0  0  0  0  0  0  0  0  0
    6.4905   82.5784   33.9105 H   0  0  0  0  0  0  0  0  0  0  0  0
    5.4247   84.5013   38.1460 H   0  0  0  0  0  0  0  0  0  0  0  0
    5.0547   83.1003   39.1867 H   0  0  0  0  0  0  0  0  0  0  0  0
  2  1  1  6
  2  3  2  0
  2  4  1  0
  2  5  1  0
  5  6  1  0
  7  6  1  0
  7  8  1  0
  7  9  1  0
  8 13  1  0
  9 10  1  0
  9 11  1  0
 11 12  1  0
 11 13  1  0
 13 14  1  0
 14 15  1  0
 14 19  1  0
 15 16  1  0
 15 20  2  0
 16 17  2  0
 17 18  1  0
 17 21  1  0
 18 19  2  0
  6 22  1  0
  6 23  1  0
  7 24  1  6
  9 25  1  1
 10 26  1  0
 11 27  1  1
 12 28  1  0
 13 29  1  6
 18 30  1  0
 19 31  1  0
 21 32  1  0
 21 33  1  0
M  CHG  2   1  -1   4  -1
M  END
>  <filename_input>  (22) 
8CSD_C5P_docked.sdf

>  <pdb_id>  (22) 
8CSD_C5P

>  <pose_rank>  (22) 
21

>  <num_atoms_heavy>  (22) 
21

>  <num_torsions>  (22) 
4

>  <pose>  (22) 
[8.556023620119745, 79.59092758266684, 33.00695281125373, 2.9051161544039887, -1.7207567234995025, -1.9068304366540199, 1.403553652943903, -0.7768269716981501, 0.8941626167562294, 2.1085111246054895]

>  <energy>  (22) 
-195.72287112772793

>  <inter_energy>  (22) 
-175.24734549748533

>  <intra_energy>  (22) 
7.024322614181156

>  <rmsd>  (22) 
11.2866

>  <sdf_rank>  (22) 
0

$$$$

     RDKit          3D

 33 34  0  0  0  0  0  0  0  0999 V2000
   19.2534   71.2375   24.9906 O   0  0  0  0  0  0  0  0  0  0  0  0
   17.7691   71.3014   25.3259 P   0  0  1  0  0  0  0  0  0  0  0  0
   16.9857   72.3333   24.5217 O   0  0  0  0  0  0  0  0  0  0  0  0
   17.0314   69.9880   25.5764 O   0  0  0  0  0  0  0  0  0  0  0  0
   17.8340   72.0856   26.9315 O   0  0  0  0  0  0  0  0  0  0  0  0
   17.5684   73.4040   27.1138 C   0  0  0  0  0  0  0  0  0  0  0  0
   18.9355   74.2358   26.7449 C   0  0  1  0  0  0  0  0  0  0  0  0
   18.6554   75.6199   26.5661 O   0  0  0  0  0  0  0  0  0  0  0  0
   19.8536   74.2082   27.9363 C   0  0  1  0  0  0  0  0  0  0  0  0
   20.7515   73.1456   28.0456 O   0  0  0  0  0  0  0  0  0  0  0  0
   20.6890   75.5248   27.7123 C   0  0  1  0  0  0  0  0  0  0  0  0
   21.6565   75.2016   26.7841 O   0  0  0  0  0  0  0  0  0  0  0  0
   19.5974   76.4661   27.0689 C   0  0  2  0  0  0  0  0  0  0  0  0
   18.9614   77.3740   28.1021 N   0  0  0  0  0  0  0  0  0  0  0  0
   19.7543   78.5286   28.5931 C   0  0  0  0  0  0  0  0  0  0  0  0
   19.0994   79.3313   29.5680 N   0  0  0  0  0  0  0  0  0  0  0  0
   17.8003   79.1269   30.0462 C   0  0  0  0  0  0  0  0  0  0  0  0
   17.0827   77.9851   29.5232 C   0  0  0  0  0  0  0  0  0  0  0  0
   17.6918   77.1542   28.6019 C   0  0  0  0  0  0  0  0  0  0  0  0
   20.8861   78.7082   28.1712 O   0  0  0  0  0  0  0  0  0  0  0  0
   17.2616   79.9902   30.9580 N   0  0  0  0  0  0  0  0  0  0  0  0
   16.7475   73.7173   26.4520 H   0  0  0  0  0  0  0  0  0  0  0  0
   17.2636   73.5988   28.1527 H   0  0  0  0  0  0  0  0  0  0  0  0
   19.3615   73.7806   25.8387 H   0  0  0  0  0  0  0  0  0  0  0  0
   19.2512   74.1092   28.8513 H   0  0  0  0  0  0  0  0  0  0  0  0
   20.9166   72.9502   29.0020 H   0  0  0  0  0  0  0  0  0  0  0  0
   21.1770   75.9691   28.5923 H   0  0  0  0  0  0  0  0  0  0  0  0
   22.4838   74.9252   27.2523 H   0  0  0  0  0  0  0  0  0  0  0  0
   20.0420   77.1214   26.3054 H   0  0  0  0  0  0  0  0  0  0  0  0
   16.0554   77.7787   29.8578 H   0  0  0  0  0  0  0  0  0  0  0  0
   17.1374   76.2724   28.2482 H   0  0  0  0  0  0  0  0  0  0  0  0
   16.3052   79.8381   31.3087 H   0  0  0  0  0  0  0  0  0  0  0  0
   17.8119   80.7932   31.2946 H   0  0  0  0  0  0  0  0  0  0  0  0
  2  1  1  6
  2  3  2  0
  2  4  1  0
  2  5  1  0
  5  6  1  0
  7  6  1  0
  7  8  1  0
  7  9  1  0
  8 13  1  0
  9 10  1  0
  9 11  1  0
 11 12  1  0
 11 13  1  0
 13 14  1  0
 14 15  1  0
 14 19  1  0
 15 16  1  0
 15 20  2  0
 16 17  2  0
 17 18  1  0
 17 21  1  0
 18 19  2  0
  6 22  1  0
  6 23  1  0
  7 24  1  6
  9 25  1  1
 10 26  1  0
 11 27  1  1
 12 28  1  0
 13 29  1  6
 18 30  1  0
 19 31  1  0
 21 32  1  0
 21 33  1  0
M  CHG  2   1  -1   4  -1
M  END
>  <filename_input>  (23) 
8CSD_C5P_docked.sdf

>  <pdb_id>  (23) 
8CSD_C5P

>  <pose_rank>  (23) 
22

>  <num_atoms_heavy>  (23) 
21

>  <num_torsions>  (23) 
4

>  <pose>  (23) 
[18.935456976304316, 74.2358039967837, 26.74488729653222, 1.2733055317164919, -2.4176954880534303, 4.504018806330573, -6.419884605490726, -8.72082760865622, -10.4802460342311, 0.5006719705779537]

>  <energy>  (23) 
-192.50575919434658

>  <inter_energy>  (23) 
-166.67146057494023

>  <intra_energy>  (23) 
5.856666673577454

>  <rmsd>  (23) 
8.30608

>  <sdf_rank>  (23) 
0

$$$$

     RDKit          3D

 33 34  0  0  0  0  0  0  0  0999 V2000
   17.0850   74.7544   24.8624 O   0  0  0  0  0  0  0  0  0  0  0  0
   16.6669   73.3774   25.3609 P   0  0  1  0  0  0  0  0  0  0  0  0
   15.2072   73.2799   25.7911 O   0  0  0  0  0  0  0  0  0  0  0  0
   17.2016   72.1524   24.6222 O   0  0  0  0  0  0  0  0  0  0  0  0
   17.5005   73.3393   26.9423 O   0  0  0  0  0  0  0  0  0  0  0  0
   17.2894   74.2733   27.9041 C   0  0  0  0  0  0  0  0  0  0  0  0
   18.4702   75.4051   27.7569 C   0  0  1  0  0  0  0  0  0  0  0  0
   17.9355   76.7174   27.8906 O   0  0  0  0  0  0  0  0  0  0  0  0
   19.4071   75.2802   28.9273 C   0  0  1  0  0  0  0  0  0  0  0  0
   20.4878   74.4053   28.8096 O   0  0  0  0  0  0  0  0  0  0  0  0
   19.9797   76.7446   29.0214 C   0  0  1  0  0  0  0  0  0  0  0  0
   20.9667   76.8237   28.0615 O   0  0  0  0  0  0  0  0  0  0  0  0
   18.7177   77.5880   28.5882 C   0  0  2  0  0  0  0  0  0  0  0  0
   17.9513   78.1059   29.7885 N   0  0  0  0  0  0  0  0  0  0  0  0
   18.0401   79.5552   30.0957 C   0  0  0  0  0  0  0  0  0  0  0  0
   17.3043   79.9691   31.2407 N   0  0  0  0  0  0  0  0  0  0  0  0
   16.5118   79.1369   32.0391 C   0  0  0  0  0  0  0  0  0  0  0  0
   16.4673   77.7361   31.6815 C   0  0  0  0  0  0  0  0  0  0  0  0
   17.1959   77.2800   30.5993 C   0  0  0  0  0  0  0  0  0  0  0  0
   18.7284   80.2809   29.3951 O   0  0  0  0  0  0  0  0  0  0  0  0
   15.8179   79.6576   33.0947 N   0  0  0  0  0  0  0  0  0  0  0  0
   16.3026   74.7392   27.7658 H   0  0  0  0  0  0  0  0  0  0  0  0
   17.3138   73.8141   28.9035 H   0  0  0  0  0  0  0  0  0  0  0  0
   18.9501   75.2526   26.7790 H   0  0  0  0  0  0  0  0  0  0  0  0
   18.8562   74.8679   29.7855 H   0  0  0  0  0  0  0  0  0  0  0  0
   20.8046   74.1488   29.7118 H   0  0  0  0  0  0  0  0  0  0  0  0
   20.3993   77.0617   29.9876 H   0  0  0  0  0  0  0  0  0  0  0  0
   21.8505   76.8945   28.5019 H   0  0  0  0  0  0  0  0  0  0  0  0
   19.0148   78.4691   28.0005 H   0  0  0  0  0  0  0  0  0  0  0  0
   15.8554   77.0359   32.2692 H   0  0  0  0  0  0  0  0  0  0  0  0
   17.1735   76.2041   30.3715 H   0  0  0  0  0  0  0  0  0  0  0  0
   15.2351   79.0433   33.6812 H   0  0  0  0  0  0  0  0  0  0  0  0
   15.8777   80.6643   33.3041 H   0  0  0  0  0  0  0  0  0  0  0  0
  2  1  1  6
  2  3  2  0
  2  4  1  0
  2  5  1  0
  5  6  1  0
  7  6  1  0
  7  8  1  0
  7  9  1  0
  8 13  1  0
  9 10  1  0
  9 11  1  0
 11 12  1  0
 11 13  1  0
 13 14  1  0
 14 15  1  0
 14 19  1  0
 15 16  1  0
 15 20  2  0
 16 17  2  0
 17 18  1  0
 17 21  1  0
 18 19  2  0
  6 22  1  0
  6 23  1  0
  7 24  1  6
  9 25  1  1
 10 26  1  0
 11 27  1  1
 12 28  1  0
 13 29  1  6
 18 30  1  0
 19 31  1  0
 21 32  1  0
 21 33  1  0
M  CHG  2   1  -1   4  -1
M  END
>  <filename_input>  (24) 
8CSD_C5P_docked.sdf

>  <pdb_id>  (24) 
8CSD_C5P

>  <pose_rank>  (24) 
23

>  <num_atoms_heavy>  (24) 
21

>  <num_torsions>  (24) 
4

>  <pose>  (24) 
[18.47016958959882, 75.40505368173964, 27.756938450607205, 0.5187943784996834, -3.5227618044724607, 4.137136141624578, -5.855512836712167, -9.201600080903964, -10.718085868689075, -0.2656275364860732]

>  <energy>  (24) 
-183.76634577044797

>  <inter_energy>  (24) 
-180.15276254012156

>  <intra_energy>  (24) 
8.369662450673532

>  <rmsd>  (24) 
7.29425

>  <sdf_rank>  (24) 
0

$$$$

     RDKit          3D

 33 34  0  0  0  0  0  0  0  0999 V2000
   15.0633   75.9986   26.1498 O   0  0  0  0  0  0  0  0  0  0  0  0
   14.7284   74.6753   26.8253 P   0  0  1  0  0  0  0  0  0  0  0  0
   14.9547   74.6630   28.3334 O   0  0  0  0  0  0  0  0  0  0  0  0
   13.4847   73.9233   26.3568 O   0  0  0  0  0  0  0  0  0  0  0  0
   16.0935   73.6688   26.2591 O   0  0  0  0  0  0  0  0  0  0  0  0
   17.0622   73.2123   27.0930 C   0  0  0  0  0  0  0  0  0  0  0  0
   18.3867   74.1574   26.8708 C   0  0  1  0  0  0  0  0  0  0  0  0
   18.0607   75.5340   27.0275 O   0  0  0  0  0  0  0  0  0  0  0  0
   19.3615   73.8921   27.9855 C   0  0  1  0  0  0  0  0  0  0  0  0
   20.2923   72.8673   27.8104 O   0  0  0  0  0  0  0  0  0  0  0  0
   20.1488   75.2555   28.0375 C   0  0  1  0  0  0  0  0  0  0  0  0
   21.0790   75.1903   27.0214 O   0  0  0  0  0  0  0  0  0  0  0  0
   19.0023   76.2774   27.6734 C   0  0  2  0  0  0  0  0  0  0  0  0
   18.3922   76.8997   28.9130 N   0  0  0  0  0  0  0  0  0  0  0  0
   18.6936   78.3256   29.1937 C   0  0  0  0  0  0  0  0  0  0  0  0
   18.0964   78.8404   30.3777 N   0  0  0  0  0  0  0  0  0  0  0  0
   17.2538   78.1262   31.2369 C   0  0  0  0  0  0  0  0  0  0  0  0
   16.9993   76.7422   30.9025 C   0  0  0  0  0  0  0  0  0  0  0  0
   17.5880   76.1869   29.7821 C   0  0  0  0  0  0  0  0  0  0  0  0
   19.4253   78.9487   28.4403 O   0  0  0  0  0  0  0  0  0  0  0  0
   16.7064   78.7407   32.3275 N   0  0  0  0  0  0  0  0  0  0  0  0
   16.7224   73.2806   28.1370 H   0  0  0  0  0  0  0  0  0  0  0  0
   17.2958   72.1593   26.8775 H   0  0  0  0  0  0  0  0  0  0  0  0
   18.7810   73.9384   25.8675 H   0  0  0  0  0  0  0  0  0  0  0  0
   18.8067   73.5634   28.8767 H   0  0  0  0  0  0  0  0  0  0  0  0
   20.5911   72.5382   28.6950 H   0  0  0  0  0  0  0  0  0  0  0  0
   20.6663   75.5043   28.9758 H   0  0  0  0  0  0  0  0  0  0  0  0
   21.9876   75.1266   27.4094 H   0  0  0  0  0  0  0  0  0  0  0  0
   19.3916   77.1065   27.0642 H   0  0  0  0  0  0  0  0  0  0  0  0
   16.3392   76.1335   31.5379 H   0  0  0  0  0  0  0  0  0  0  0  0
   17.4072   75.1225   29.5712 H   0  0  0  0  0  0  0  0  0  0  0  0
   16.0864   78.2133   32.9587 H   0  0  0  0  0  0  0  0  0  0  0  0
   16.9136   79.7314   32.5185 H   0  0  0  0  0  0  0  0  0  0  0  0
  2  1  1  6
  2  3  2  0
  2  4  1  0
  2  5  1  0
  5  6  1  0
  7  6  1  0
  7  8  1  0
  7  9  1  0
  8 13  1  0
  9 10  1  0
  9 11  1  0
 11 12  1  0
 11 13  1  0
 13 14  1  0
 14 15  1  0
 14 19  1  0
 15 16  1  0
 15 20  2  0
 16 17  2  0
 17 18  1  0
 17 21  1  0
 18 19  2  0
  6 22  1  0
  6 23  1  0
  7 24  1  6
  9 25  1  1
 10 26  1  0
 11 27  1  1
 12 28  1  0
 13 29  1  6
 18 30  1  0
 19 31  1  0
 21 32  1  0
 21 33  1  0
M  CHG  2   1  -1   4  -1
M  END
>  <filename_input>  (25) 
8CSD_C5P_docked.sdf

>  <pdb_id>  (25) 
8CSD_C5P

>  <pose_rank>  (25) 
24

>  <num_atoms_heavy>  (25) 
21

>  <num_torsions>  (25) 
4

>  <pose>  (25) 
[18.386695841910573, 74.15741039906959, 26.870810606115985, 0.3210174832363529, -3.248464595450978, 4.183902844962739, -5.837941371919325, -10.65689723673743, -10.835969725262371, 0.6859827838239283]

>  <energy>  (25) 
-180.86136731563465

>  <inter_energy>  (25) 
-186.29160606269699

>  <intra_energy>  (25) 
12.408846045165907

>  <rmsd>  (25) 
7.53065

>  <sdf_rank>  (25) 
0

$$$$

     RDKit          3D

 33 34  0  0  0  0  0  0  0  0999 V2000
   15.8520   68.8710   33.3690 O   0  0  0  0  0  0  0  0  0  0  0  0
   14.8760   69.9760   32.9870 P   0  0  1  0  0  0  0  0  0  0  0  0
   14.7280   70.1940   31.4850 O   0  0  0  0  0  0  0  0  0  0  0  0
   13.5790   70.0970   33.7840 O   0  0  0  0  0  0  0  0  0  0  0  0
   15.8210   71.4190   33.4580 O   0  0  0  0  0  0  0  0  0  0  0  0
   16.8990   71.8500   32.7550 C   0  0  0  0  0  0  0  0  0  0  0  0
   17.1180   73.4370   33.1160 C   0  0  1  0  0  0  0  0  0  0  0  0
   15.9370   74.1860   32.8510 O   0  0  0  0  0  0  0  0  0  0  0  0
   17.3010   73.5730   34.6030 C   0  0  1  0  0  0  0  0  0  0  0  0
   18.5950   73.4690   35.1150 O   0  0  0  0  0  0  0  0  0  0  0  0
   16.8050   75.0490   34.8410 C   0  0  1  0  0  0  0  0  0  0  0  0
   17.8650   75.8610   34.4960 O   0  0  0  0  0  0  0  0  0  0  0  0
   15.6540   75.1550   33.7660 C   0  0  2  0  0  0  0  0  0  0  0  0
   14.2920   74.8920   34.3760 N   0  0  0  0  0  0  0  0  0  0  0  0
   13.6110   76.0170   35.0640 C   0  0  0  0  0  0  0  0  0  0  0  0
   12.3420   75.6960   35.6210 N   0  0  0  0  0  0  0  0  0  0  0  0
   11.7110   74.4500   35.5350 C   0  0  0  0  0  0  0  0  0  0  0  0
   12.4290   73.3990   34.8480 C   0  0  0  0  0  0  0  0  0  0  0  0
   13.6820   73.6530   34.3230 C   0  0  0  0  0  0  0  0  0  0  0  0
   14.1610   77.1050   35.1340 O   0  0  0  0  0  0  0  0  0  0  0  0
   10.4700   74.2710   36.0780 N   0  0  0  0  0  0  0  0  0  0  0  0
   17.7903   71.2727   33.0419 H   0  0  0  0  0  0  0  0  0  0  0  0
   16.7375   71.7159   31.6752 H   0  0  0  0  0  0  0  0  0  0  0  0
   17.9738   73.7928   32.5236 H   0  0  0  0  0  0  0  0  0  0  0  0
   16.7763   72.7474   35.1060 H   0  0  0  0  0  0  0  0  0  0  0  0
   18.5596   73.4718   36.1044 H   0  0  0  0  0  0  0  0  0  0  0  0
   16.4727   75.3126   35.8559 H   0  0  0  0  0  0  0  0  0  0  0  0
   18.3040   76.1973   35.3172 H   0  0  0  0  0  0  0  0  0  0  0  0
   15.6136   76.1638   33.3294 H   0  0  0  0  0  0  0  0  0  0  0  0
   11.9792   72.4006   34.7437 H   0  0  0  0  0  0  0  0  0  0  0  0
   14.2216   72.8263   33.8379 H   0  0  0  0  0  0  0  0  0  0  0  0
   10.0072   73.3531   36.0137 H   0  0  0  0  0  0  0  0  0  0  0  0
    9.9973   75.0540   36.5517 H   0  0  0  0  0  0  0  0  0  0  0  0
  2  1  1  6
  2  3  2  0
  2  4  1  0
  2  5  1  0
  5  6  1  0
  7  6  1  0
  7  8  1  0
  7  9  1  0
  8 13  1  0
  9 10  1  0
  9 11  1  0
 11 12  1  0
 11 13  1  0
 13 14  1  0
 14 15  1  0
 14 19  1  0
 15 16  1  0
 15 20  2  0
 16 17  2  0
 17 18  1  0
 17 21  1  0
 18 19  2  0
  6 22  1  0
  6 23  1  0
  7 24  1  6
  9 25  1  1
 10 26  1  0
 11 27  1  1
 12 28  1  0
 13 29  1  6
 18 30  1  0
 19 31  1  0
 21 32  1  0
 21 33  1  0
M  CHG  2   1  -1   4  -1
M  END
>  <filename_input>  (26) 
8CSD_C5P_docked.sdf

>  <pdb_id>  (26) 
8CSD_C5P

>  <pose_rank>  (26) 
25

>  <num_atoms_heavy>  (26) 
21

>  <num_torsions>  (26) 
4

>  <pose>  (26) 
[17.118, 73.437, 33.116, 1e-06, 1e-06, 1e-06, 0.0, 0.0, 0.0, 0.0]

>  <energy>  (26) 
-668.2152453556915

>  <inter_energy>  (26) 
-653.1502438556106

>  <intra_energy>  (26) 
7.774797296890337

>  <rmsd>  (26) 
0.0

>  <sdf_rank>  (26) 
0

$$$$
