
     RDKit          3D

 36 35  0  0  0  0  0  0  0  0999 V2000
   27.2363   30.1961   29.9948 N   0  0  0  0  0  0  0  0  0  0  0  0
   28.0381   29.0194   29.5572 C   0  0  2  0  0  0  0  0  0  0  0  0
   28.3755   29.1635   28.0699 C   0  0  0  0  0  0  0  0  0  0  0  0
   28.0502   30.2169   27.5091 O   0  0  0  0  0  0  0  0  0  0  0  0
   28.9828   28.2233   27.5358 O   0  0  0  0  0  0  0  0  0  0  0  0
   27.2528   27.7222   29.7707 C   0  0  0  0  0  0  0  0  0  0  0  0
   26.4481   27.7054   31.0630 C   0  0  0  0  0  0  0  0  0  0  0  0
   25.0768   27.0778   30.9096 C   0  0  0  0  0  0  0  0  0  0  0  0
   24.8317   26.2510   30.0363 O   0  0  0  0  0  0  0  0  0  0  0  0
   24.1450   27.5067   31.7605 N   0  0  0  0  0  0  0  0  0  0  0  0
   22.7701   27.0340   31.7523 C   0  0  2  0  0  0  0  0  0  0  0  0
   21.7924   27.9628   31.0299 C   0  0  0  0  0  0  0  0  0  0  0  0
   20.7689   27.4925   30.5407 O   0  0  0  0  0  0  0  0  0  0  0  0
   22.2714   26.7854   33.1654 C   0  0  0  0  0  0  0  0  0  0  0  0
   22.3264   28.2519   34.2270 S   0  0  0  0  0  0  0  0  0  0  0  0
   22.1074   29.2589   30.9699 N   0  0  0  0  0  0  0  0  0  0  0  0
   21.1644   30.2471   30.4862 C   0  0  0  0  0  0  0  0  0  0  0  0
   21.4206   31.6574   31.0164 C   0  0  0  0  0  0  0  0  0  0  0  0
   22.2584   32.3659   30.4261 O   0  0  0  0  0  0  0  0  0  0  0  0
   20.7466   32.0116   32.0067 O   0  0  0  0  0  0  0  0  0  0  0  0
   27.2122   30.2315   31.0239 H   0  0  0  0  0  0  0  0  0  0  0  0
   27.6662   31.0587   29.6315 H   0  0  0  0  0  0  0  0  0  0  0  0
   26.2762   30.1116   29.6315 H   0  0  0  0  0  0  0  0  0  0  0  0
   28.9610   28.9784   30.1544 H   0  0  0  0  0  0  0  0  0  0  0  0
   26.5593   27.5922   28.9268 H   0  0  0  0  0  0  0  0  0  0  0  0
   27.9876   26.9062   29.8363 H   0  0  0  0  0  0  0  0  0  0  0  0
   27.0105   27.1347   31.8166 H   0  0  0  0  0  0  0  0  0  0  0  0
   26.2945   28.7523   31.3637 H   0  0  0  0  0  0  0  0  0  0  0  0
   24.4135   28.2114   32.4620 H   0  0  0  0  0  0  0  0  0  0  0  0
   22.7968   26.0924   31.1842 H   0  0  0  0  0  0  0  0  0  0  0  0
   21.2297   26.4364   33.1094 H   0  0  0  0  0  0  0  0  0  0  0  0
   22.9415   26.0381   33.6155 H   0  0  0  0  0  0  0  0  0  0  0  0
   22.3119   27.8651   35.5412 H   0  0  0  0  0  0  0  0  0  0  0  0
   23.0429   29.5636   31.2746 H   0  0  0  0  0  0  0  0  0  0  0  0
   21.2229   30.2737   29.3881 H   0  0  0  0  0  0  0  0  0  0  0  0
   20.1706   29.9449   30.8483 H   0  0  0  0  0  0  0  0  0  0  0  0
  2  1  1  0
  2  3  1  0
  2  6  1  0
  3  4  2  0
  3  5  1  0
  6  7  1  0
  7  8  1  0
  8  9  2  0
  8 10  1  0
 10 11  1  0
 11 12  1  0
 11 14  1  0
 12 13  2  0
 12 16  1  0
 14 15  1  0
 16 17  1  0
 17 18  1  0
 18 19  2  0
 18 20  1  0
  1 21  1  0
  1 22  1  0
  1 23  1  0
  2 24  1  1
  6 25  1  0
  6 26  1  0
  7 27  1  0
  7 28  1  0
 10 29  1  0
 11 30  1  6
 14 31  1  0
 14 32  1  0
 15 33  1  0
 16 34  1  0
 17 35  1  0
 17 36  1  0
M  CHG  3   1   1   5  -1  20  -1
M  END
>  <filename_input>  (1) 
8D19_GSH_docked.sdf

>  <pdb_id>  (1) 
8D19_GSH

>  <pose_rank>  (1) 
0

>  <num_atoms_heavy>  (1) 
20

>  <num_torsions>  (1) 
9

>  <pose>  (1) 
[25.076754780879952, 27.07778597246884, 30.90959689835572, -1.4861166535230323, 0.25998282127499095, 0.07576119666478302, -5.208323459211215, 3.922209752634346, 0.6538579328965931, -2.4806874926030154, -0.33246620654836134, -6.601929390709464, -1.8682669041039746, -5.163540280357441, 2.1594632484765257]

>  <energy>  (1) 
-498.78832243789924

>  <inter_energy>  (1) 
-479.2525114216145

>  <intra_energy>  (1) 
4.423243825839803

>  <rmsd>  (1) 
3.06488

>  <sdf_rank>  (1) 
0

$$$$

     RDKit          3D

 36 35  0  0  0  0  0  0  0  0999 V2000
   28.8332   28.2569   30.0949 N   0  0  0  0  0  0  0  0  0  0  0  0
   27.8923   28.8682   29.1151 C   0  0  2  0  0  0  0  0  0  0  0  0
   28.6930   29.4875   27.9653 C   0  0  0  0  0  0  0  0  0  0  0  0
   28.3459   30.6046   27.5633 O   0  0  0  0  0  0  0  0  0  0  0  0
   29.6581   28.8375   27.5361 O   0  0  0  0  0  0  0  0  0  0  0  0
   27.0496   29.9577   29.7842 C   0  0  0  0  0  0  0  0  0  0  0  0
   26.4415   29.5256   31.1114 C   0  0  0  0  0  0  0  0  0  0  0  0
   25.0271   30.0303   31.3178 C   0  0  0  0  0  0  0  0  0  0  0  0
   24.7636   31.2276   31.3762 O   0  0  0  0  0  0  0  0  0  0  0  0
   24.0931   29.0914   31.4672 N   0  0  0  0  0  0  0  0  0  0  0  0
   22.6872   29.3849   31.6935 C   0  0  2  0  0  0  0  0  0  0  0  0
   21.8048   28.1445   31.8461 C   0  0  0  0  0  0  0  0  0  0  0  0
   21.2397   27.6853   30.8572 O   0  0  0  0  0  0  0  0  0  0  0  0
   22.1289   30.2619   30.5860 C   0  0  0  0  0  0  0  0  0  0  0  0
   21.1385   31.6542   31.1870 S   0  0  0  0  0  0  0  0  0  0  0  0
   21.6949   27.6156   33.0671 N   0  0  0  0  0  0  0  0  0  0  0  0
   21.0492   26.3368   33.2845 C   0  0  0  0  0  0  0  0  0  0  0  0
   21.5929   25.5664   34.4873 C   0  0  0  0  0  0  0  0  0  0  0  0
   22.7217   25.0474   34.3937 O   0  0  0  0  0  0  0  0  0  0  0  0
   20.8637   25.5285   35.5009 O   0  0  0  0  0  0  0  0  0  0  0  0
   28.5144   28.4640   31.0522 H   0  0  0  0  0  0  0  0  0  0  0  0
   28.8597   27.2368   29.9551 H   0  0  0  0  0  0  0  0  0  0  0  0
   29.7760   28.6473   29.9551 H   0  0  0  0  0  0  0  0  0  0  0  0
   27.2215   28.0847   28.7329 H   0  0  0  0  0  0  0  0  0  0  0  0
   27.6911   30.8331   29.9637 H   0  0  0  0  0  0  0  0  0  0  0  0
   26.2150   30.1845   29.1044 H   0  0  0  0  0  0  0  0  0  0  0  0
   26.4283   28.4263   31.1476 H   0  0  0  0  0  0  0  0  0  0  0  0
   27.0613   29.9602   31.9096 H   0  0  0  0  0  0  0  0  0  0  0  0
   24.3830   28.1042   31.4197 H   0  0  0  0  0  0  0  0  0  0  0  0
   22.6596   29.9181   32.6552 H   0  0  0  0  0  0  0  0  0  0  0  0
   22.9710   30.6616   30.0019 H   0  0  0  0  0  0  0  0  0  0  0  0
   21.4610   29.6300   29.9822 H   0  0  0  0  0  0  0  0  0  0  0  0
   21.1373   31.6560   32.5570 H   0  0  0  0  0  0  0  0  0  0  0  0
   22.0783   28.1289   33.8737 H   0  0  0  0  0  0  0  0  0  0  0  0
   19.9750   26.5134   33.4428 H   0  0  0  0  0  0  0  0  0  0  0  0
   21.2488   25.7223   32.3943 H   0  0  0  0  0  0  0  0  0  0  0  0
  2  1  1  0
  2  3  1  0
  2  6  1  0
  3  4  2  0
  3  5  1  0
  6  7  1  0
  7  8  1  0
  8  9  2  0
  8 10  1  0
 10 11  1  0
 11 12  1  0
 11 14  1  0
 12 13  2  0
 12 16  1  0
 14 15  1  0
 16 17  1  0
 17 18  1  0
 18 19  2  0
 18 20  1  0
  1 21  1  0
  1 22  1  0
  1 23  1  0
  2 24  1  6
  6 25  1  0
  6 26  1  0
  7 27  1  0
  7 28  1  0
 10 29  1  0
 11 30  1  1
 14 31  1  0
 14 32  1  0
 15 33  1  0
 16 34  1  0
 17 35  1  0
 17 36  1  0
M  CHG  3   1   1   5  -1  20  -1
M  END
>  <filename_input>  (2) 
8D19_GSH_docked.sdf

>  <pdb_id>  (2) 
8D19_GSH

>  <pose_rank>  (2) 
1

>  <num_atoms_heavy>  (2) 
20

>  <num_torsions>  (2) 
9

>  <pose>  (2) 
[25.027057887076378, 30.030283361586033, 31.317848856447434, -4.723280078466746, -2.4284700751725117, -0.5749006157089032, -0.4580723862161584, -0.9726635064667292, 0.5053065562466158, 1.3219997048164993, 4.539127352955095, 1.6522057760432431, -1.9518629215745529, -1.6177446775602629, -1.2057156728467708]

>  <energy>  (2) 
-411.76245870427107

>  <inter_energy>  (2) 
-423.85672086215914

>  <intra_energy>  (2) 
14.12783516090095

>  <rmsd>  (2) 
4.56445

>  <sdf_rank>  (2) 
0

$$$$

     RDKit          3D

 36 35  0  0  0  0  0  0  0  0999 V2000
   20.3564   29.3207   30.8664 N   0  0  0  0  0  0  0  0  0  0  0  0
   21.4144   29.2190   31.9101 C   0  0  2  0  0  0  0  0  0  0  0  0
   20.7712   28.8273   33.2441 C   0  0  0  0  0  0  0  0  0  0  0  0
   19.9414   29.6057   33.7294 O   0  0  0  0  0  0  0  0  0  0  0  0
   21.1043   27.7368   33.7320 O   0  0  0  0  0  0  0  0  0  0  0  0
   22.1389   30.5578   32.0758 C   0  0  0  0  0  0  0  0  0  0  0  0
   23.6387   30.4134   32.2944 C   0  0  0  0  0  0  0  0  0  0  0  0
   24.2836   29.3880   31.3830 C   0  0  0  0  0  0  0  0  0  0  0  0
   23.9568   29.2637   30.2066 O   0  0  0  0  0  0  0  0  0  0  0  0
   25.2027   28.6066   31.9492 N   0  0  0  0  0  0  0  0  0  0  0  0
   25.9128   27.5557   31.2383 C   0  0  2  0  0  0  0  0  0  0  0  0
   26.9147   26.7835   32.0988 C   0  0  0  0  0  0  0  0  0  0  0  0
   28.0956   26.7538   31.7632 O   0  0  0  0  0  0  0  0  0  0  0  0
   26.6264   28.1105   30.0174 C   0  0  0  0  0  0  0  0  0  0  0  0
   25.9542   27.5129   28.4452 S   0  0  0  0  0  0  0  0  0  0  0  0
   26.4450   26.1734   33.1896 N   0  0  0  0  0  0  0  0  0  0  0  0
   27.3335   25.5857   34.1719 C   0  0  0  0  0  0  0  0  0  0  0  0
   26.8900   24.2070   34.6600 C   0  0  0  0  0  0  0  0  0  0  0  0
   25.6729   23.9409   34.6482 O   0  0  0  0  0  0  0  0  0  0  0  0
   27.7952   23.4262   35.0225 O   0  0  0  0  0  0  0  0  0  0  0  0
   19.4353   29.4093   31.3187 H   0  0  0  0  0  0  0  0  0  0  0  0
   20.5317   30.1487   30.2794 H   0  0  0  0  0  0  0  0  0  0  0  0
   20.3707   28.4745   30.2794 H   0  0  0  0  0  0  0  0  0  0  0  0
   22.1440   28.4560   31.6009 H   0  0  0  0  0  0  0  0  0  0  0  0
   21.9755   31.1569   31.1679 H   0  0  0  0  0  0  0  0  0  0  0  0
   21.7259   31.0403   32.9739 H   0  0  0  0  0  0  0  0  0  0  0  0
   24.1132   31.3891   32.1126 H   0  0  0  0  0  0  0  0  0  0  0  0
   23.7845   30.0667   33.3281 H   0  0  0  0  0  0  0  0  0  0  0  0
   25.4220   28.7551   32.9446 H   0  0  0  0  0  0  0  0  0  0  0  0
   25.1334   26.8413   30.9349 H   0  0  0  0  0  0  0  0  0  0  0  0
   26.5437   29.2073   30.0357 H   0  0  0  0  0  0  0  0  0  0  0  0
   27.6698   27.7666   30.0717 H   0  0  0  0  0  0  0  0  0  0  0  0
   24.9469   26.6172   28.6902 H   0  0  0  0  0  0  0  0  0  0  0  0
   25.4270   26.1193   33.3365 H   0  0  0  0  0  0  0  0  0  0  0  0
   28.3325   25.4891   33.7217 H   0  0  0  0  0  0  0  0  0  0  0  0
   27.3280   26.2518   35.0472 H   0  0  0  0  0  0  0  0  0  0  0  0
  2  1  1  0
  2  3  1  0
  2  6  1  0
  3  4  2  0
  3  5  1  0
  6  7  1  0
  7  8  1  0
  8  9  2  0
  8 10  1  0
 10 11  1  0
 11 12  1  0
 11 14  1  0
 12 13  2  0
 12 16  1  0
 14 15  1  0
 16 17  1  0
 17 18  1  0
 18 19  2  0
 18 20  1  0
  1 21  1  0
  1 22  1  0
  1 23  1  0
  2 24  1  6
  6 25  1  0
  6 26  1  0
  7 27  1  0
  7 28  1  0
 10 29  1  0
 11 30  1  6
 14 31  1  0
 14 32  1  0
 15 33  1  0
 16 34  1  0
 17 35  1  0
 17 36  1  0
M  CHG  3   1   1   5  -1  20  -1
M  END
>  <filename_input>  (3) 
8D19_GSH_docked.sdf

>  <pdb_id>  (3) 
8D19_GSH

>  <pose_rank>  (3) 
2

>  <num_atoms_heavy>  (3) 
20

>  <num_torsions>  (3) 
9

>  <pose>  (3) 
[24.283617197981513, 29.38803977905853, 31.383047822674303, 0.4850763546739645, 0.9539451087128198, -3.996338159184567, 7.600136071634452, -4.045452620290066, -1.1222709939511457, -3.6523024862979243, -1.7452967757833702, 1.1508216960271545, 5.608291544201823, -0.8399206497390989, -0.8474631898316212]

>  <energy>  (3) 
-191.26397314347085

>  <inter_energy>  (3) 
-220.04047923328565

>  <intra_energy>  (3) 
30.767885333014924

>  <rmsd>  (3) 
7.72158

>  <sdf_rank>  (3) 
0

$$$$

     RDKit          3D

 36 35  0  0  0  0  0  0  0  0999 V2000
   29.0095   28.0666   30.0730 N   0  0  0  0  0  0  0  0  0  0  0  0
   27.9064   28.8245   29.4190 C   0  0  2  0  0  0  0  0  0  0  0  0
   28.4544   29.5503   28.1863 C   0  0  0  0  0  0  0  0  0  0  0  0
   28.5143   30.7850   28.2292 O   0  0  0  0  0  0  0  0  0  0  0  0
   28.8319   28.8453   27.2383 O   0  0  0  0  0  0  0  0  0  0  0  0
   27.3126   29.8536   30.3850 C   0  0  0  0  0  0  0  0  0  0  0  0
   26.0789   29.3523   31.1231 C   0  0  0  0  0  0  0  0  0  0  0  0
   24.8556   30.2218   30.9100 C   0  0  0  0  0  0  0  0  0  0  0  0
   24.8785   31.2146   30.1887 O   0  0  0  0  0  0  0  0  0  0  0  0
   23.7636   29.8604   31.5829 N   0  0  0  0  0  0  0  0  0  0  0  0
   22.5038   30.5833   31.5190 C   0  0  2  0  0  0  0  0  0  0  0  0
   22.5213   31.9371   32.2315 C   0  0  0  0  0  0  0  0  0  0  0  0
   22.2956   32.9572   31.5862 O   0  0  0  0  0  0  0  0  0  0  0  0
   21.3652   29.7431   32.0713 C   0  0  0  0  0  0  0  0  0  0  0  0
   21.1932   28.1290   31.2675 S   0  0  0  0  0  0  0  0  0  0  0  0
   22.7836   31.9385   33.5406 N   0  0  0  0  0  0  0  0  0  0  0  0
   22.6312   33.1352   34.3434 C   0  0  0  0  0  0  0  0  0  0  0  0
   21.4354   33.0934   35.2944 C   0  0  0  0  0  0  0  0  0  0  0  0
   20.5058   32.3044   35.0382 O   0  0  0  0  0  0  0  0  0  0  0  0
   21.4856   33.8507   36.2866 O   0  0  0  0  0  0  0  0  0  0  0  0
   28.9124   28.1333   31.0962 H   0  0  0  0  0  0  0  0  0  0  0  0
   28.9632   27.0780   29.7874 H   0  0  0  0  0  0  0  0  0  0  0  0
   29.9157   28.4643   29.7874 H   0  0  0  0  0  0  0  0  0  0  0  0
   27.1173   28.1170   29.1245 H   0  0  0  0  0  0  0  0  0  0  0  0
   28.0798   30.1169   31.1281 H   0  0  0  0  0  0  0  0  0  0  0  0
   27.0000   30.7197   29.7833 H   0  0  0  0  0  0  0  0  0  0  0  0
   25.8501   28.3360   30.7698 H   0  0  0  0  0  0  0  0  0  0  0  0
   26.3112   29.3762   32.1980 H   0  0  0  0  0  0  0  0  0  0  0  0
   23.8149   29.0233   32.1809 H   0  0  0  0  0  0  0  0  0  0  0  0
   22.3466   30.7861   30.4494 H   0  0  0  0  0  0  0  0  0  0  0  0
   21.5435   29.5792   33.1443 H   0  0  0  0  0  0  0  0  0  0  0  0
   20.4348   30.2977   31.8797 H   0  0  0  0  0  0  0  0  0  0  0  0
   21.0891   27.1521   32.2224 H   0  0  0  0  0  0  0  0  0  0  0  0
   23.1018   31.0684   33.9906 H   0  0  0  0  0  0  0  0  0  0  0  0
   23.5447   33.2702   34.9411 H   0  0  0  0  0  0  0  0  0  0  0  0
   22.4564   33.9679   33.6463 H   0  0  0  0  0  0  0  0  0  0  0  0
  2  1  1  0
  2  3  1  0
  2  6  1  0
  3  4  2  0
  3  5  1  0
  6  7  1  0
  7  8  1  0
  8  9  2  0
  8 10  1  0
 10 11  1  0
 11 12  1  0
 11 14  1  0
 12 13  2  0
 12 16  1  0
 14 15  1  0
 16 17  1  0
 17 18  1  0
 18 19  2  0
 18 20  1  0
  1 21  1  0
  1 22  1  0
  1 23  1  0
  2 24  1  6
  6 25  1  0
  6 26  1  0
  7 27  1  0
  7 28  1  0
 10 29  1  0
 11 30  1  6
 14 31  1  0
 14 32  1  0
 15 33  1  0
 16 34  1  0
 17 35  1  0
 17 36  1  0
M  CHG  3   1   1   5  -1  20  -1
M  END
>  <filename_input>  (4) 
8D19_GSH_docked.sdf

>  <pdb_id>  (4) 
8D19_GSH

>  <pose_rank>  (4) 
3

>  <num_atoms_heavy>  (4) 
20

>  <num_torsions>  (4) 
9

>  <pose>  (4) 
[24.855590499927313, 30.221848372460013, 30.909951570619015, 0.2092942691125226, 0.36373395443634826, -0.3029302100454325, 6.934683643309321, 11.912877818903189, -12.892437601392388, -4.518438118168082, 0.14064229943223389, 11.652257337707738, 3.594335560610347, -0.7227161363466411, -6.120251625384068]

>  <energy>  (4) 
-380.28459917464323

>  <inter_energy>  (4) 
-376.0024751248461

>  <intra_energy>  (4) 
5.228333705752975

>  <rmsd>  (4) 
1.97574

>  <sdf_rank>  (4) 
0

$$$$

     RDKit          3D

 36 35  0  0  0  0  0  0  0  0999 V2000
   24.4903   26.5367   32.5485 N   0  0  0  0  0  0  0  0  0  0  0  0
   25.2096   27.8392   32.6204 C   0  0  2  0  0  0  0  0  0  0  0  0
   26.6710   27.6319   32.2106 C   0  0  0  0  0  0  0  0  0  0  0  0
   27.0050   27.9995   31.0777 O   0  0  0  0  0  0  0  0  0  0  0  0
   27.4296   27.1371   33.0579 O   0  0  0  0  0  0  0  0  0  0  0  0
   25.1622   28.4036   34.0432 C   0  0  0  0  0  0  0  0  0  0  0  0
   24.8689   29.8966   34.0945 C   0  0  0  0  0  0  0  0  0  0  0  0
   23.7304   30.3177   33.1866 C   0  0  0  0  0  0  0  0  0  0  0  0
   23.9016   31.0682   32.2307 O   0  0  0  0  0  0  0  0  0  0  0  0
   22.5260   29.8498   33.5128 N   0  0  0  0  0  0  0  0  0  0  0  0
   21.3146   30.1615   32.7716 C   0  0  2  0  0  0  0  0  0  0  0  0
   20.2078   30.7941   33.6174 C   0  0  0  0  0  0  0  0  0  0  0  0
   19.4386   30.0666   34.2396 O   0  0  0  0  0  0  0  0  0  0  0  0
   20.7681   28.9260   32.0771 C   0  0  0  0  0  0  0  0  0  0  0  0
   21.8829   28.2394   30.8255 S   0  0  0  0  0  0  0  0  0  0  0  0
   20.1360   32.1272   33.6368 N   0  0  0  0  0  0  0  0  0  0  0  0
   19.2578   32.8262   34.5533 C   0  0  0  0  0  0  0  0  0  0  0  0
   19.6851   34.2649   34.8427 C   0  0  0  0  0  0  0  0  0  0  0  0
   20.6473   34.7336   34.2049 O   0  0  0  0  0  0  0  0  0  0  0  0
   19.0160   34.8839   35.6968 O   0  0  0  0  0  0  0  0  0  0  0  0
   24.3019   26.1955   33.5019 H   0  0  0  0  0  0  0  0  0  0  0  0
   23.5997   26.6636   32.0469 H   0  0  0  0  0  0  0  0  0  0  0  0
   25.0721   25.8505   32.0469 H   0  0  0  0  0  0  0  0  0  0  0  0
   24.7208   28.5512   31.9393 H   0  0  0  0  0  0  0  0  0  0  0  0
   24.3757   27.8748   34.6015 H   0  0  0  0  0  0  0  0  0  0  0  0
   26.1589   28.2542   34.4840 H   0  0  0  0  0  0  0  0  0  0  0  0
   24.6079   30.1654   35.1288 H   0  0  0  0  0  0  0  0  0  0  0  0
   25.7726   30.4175   33.7453 H   0  0  0  0  0  0  0  0  0  0  0  0
   22.4491   29.2337   34.3347 H   0  0  0  0  0  0  0  0  0  0  0  0
   21.6210   30.9140   32.0301 H   0  0  0  0  0  0  0  0  0  0  0  0
   20.5827   28.1536   32.8380 H   0  0  0  0  0  0  0  0  0  0  0  0
   19.8490   29.2313   31.5554 H   0  0  0  0  0  0  0  0  0  0  0  0
   22.9240   27.5982   31.4437 H   0  0  0  0  0  0  0  0  0  0  0  0
   20.7186   32.6716   32.9849 H   0  0  0  0  0  0  0  0  0  0  0  0
   18.2476   32.8455   34.1185 H   0  0  0  0  0  0  0  0  0  0  0  0
   19.2953   32.2831   35.5091 H   0  0  0  0  0  0  0  0  0  0  0  0
  2  1  1  0
  2  3  1  0
  2  6  1  0
  3  4  2  0
  3  5  1  0
  6  7  1  0
  7  8  1  0
  8  9  2  0
  8 10  1  0
 10 11  1  0
 11 12  1  0
 11 14  1  0
 12 13  2  0
 12 16  1  0
 14 15  1  0
 16 17  1  0
 17 18  1  0
 18 19  2  0
 18 20  1  0
  1 21  1  0
  1 22  1  0
  1 23  1  0
  2 24  1  6
  6 25  1  0
  6 26  1  0
  7 27  1  0
  7 28  1  0
 10 29  1  0
 11 30  1  6
 14 31  1  0
 14 32  1  0
 15 33  1  0
 16 34  1  0
 17 35  1  0
 17 36  1  0
M  CHG  3   1   1   5  -1  20  -1
M  END
>  <filename_input>  (5) 
8D19_GSH_docked.sdf

>  <pdb_id>  (5) 
8D19_GSH

>  <pose_rank>  (5) 
4

>  <num_atoms_heavy>  (5) 
20

>  <num_torsions>  (5) 
9

>  <pose>  (5) 
[23.73038164890395, 30.31771031674814, 33.186577198589326, -3.631764382189912, -3.1037999449842406, -4.280135750615562, -39.08581629702817, -167.3669883352809, -132.99719787083802, -7.054385808574256, 36.936074446884646, 20.637041452976288, 10.722694263100847, 6.036684205224862, 31.44328818006795]

>  <energy>  (5) 
-224.1785533833326

>  <inter_energy>  (5) 
-236.03992847738408

>  <intra_energy>  (5) 
5.796816592637896

>  <rmsd>  (5) 
3.1735

>  <sdf_rank>  (5) 
0

$$$$

     RDKit          3D

 36 35  0  0  0  0  0  0  0  0999 V2000
   28.1982   27.8602   30.5144 N   0  0  0  0  0  0  0  0  0  0  0  0
   27.5612   28.6261   29.4069 C   0  0  2  0  0  0  0  0  0  0  0  0
   28.6320   29.0205   28.3849 C   0  0  0  0  0  0  0  0  0  0  0  0
   29.7582   28.5263   28.5170 O   0  0  0  0  0  0  0  0  0  0  0  0
   28.2861   29.7864   27.4728 O   0  0  0  0  0  0  0  0  0  0  0  0
   26.8890   29.8928   29.9442 C   0  0  0  0  0  0  0  0  0  0  0  0
   25.9930   29.6403   31.1489 C   0  0  0  0  0  0  0  0  0  0  0  0
   24.5270   29.9128   30.8761 C   0  0  0  0  0  0  0  0  0  0  0  0
   24.1061   31.0413   30.6404 O   0  0  0  0  0  0  0  0  0  0  0  0
   23.7190   28.8551   30.9433 N   0  0  0  0  0  0  0  0  0  0  0  0
   22.2825   28.9262   30.7306 C   0  0  2  0  0  0  0  0  0  0  0  0
   21.5254   29.6932   31.8164 C   0  0  0  0  0  0  0  0  0  0  0  0
   20.8060   30.6349   31.4945 O   0  0  0  0  0  0  0  0  0  0  0  0
   21.6834   27.5373   30.5903 C   0  0  0  0  0  0  0  0  0  0  0  0
   22.8595   26.1991   30.9174 S   0  0  0  0  0  0  0  0  0  0  0  0
   21.6874   29.2903   33.0790 N   0  0  0  0  0  0  0  0  0  0  0  0
   20.8704   29.8164   34.1539 C   0  0  0  0  0  0  0  0  0  0  0  0
   20.8940   28.9640   35.4223 C   0  0  0  0  0  0  0  0  0  0  0  0
   19.8403   28.3987   35.7722 O   0  0  0  0  0  0  0  0  0  0  0  0
   21.9899   28.8776   36.0155 O   0  0  0  0  0  0  0  0  0  0  0  0
   27.8833   28.2388   31.4191 H   0  0  0  0  0  0  0  0  0  0  0  0
   27.9292   26.8684   30.4450 H   0  0  0  0  0  0  0  0  0  0  0  0
   29.2224   27.9439   30.4450 H   0  0  0  0  0  0  0  0  0  0  0  0
   26.7974   27.9926   28.9324 H   0  0  0  0  0  0  0  0  0  0  0  0
   27.6736   30.6059   30.2371 H   0  0  0  0  0  0  0  0  0  0  0  0
   26.2480   30.2847   29.1407 H   0  0  0  0  0  0  0  0  0  0  0  0
   26.1020   28.5879   31.4501 H   0  0  0  0  0  0  0  0  0  0  0  0
   26.3106   30.3342   31.9411 H   0  0  0  0  0  0  0  0  0  0  0  0
   24.1348   27.9374   31.1575 H   0  0  0  0  0  0  0  0  0  0  0  0
   22.1614   29.4919   29.7950 H   0  0  0  0  0  0  0  0  0  0  0  0
   20.8480   27.4463   31.3001 H   0  0  0  0  0  0  0  0  0  0  0  0
   21.3597   27.4315   29.5444 H   0  0  0  0  0  0  0  0  0  0  0  0
   23.0020   26.0369   32.2703 H   0  0  0  0  0  0  0  0  0  0  0  0
   22.4104   28.5888   33.2940 H   0  0  0  0  0  0  0  0  0  0  0  0
   21.2356   30.8230   34.4059 H   0  0  0  0  0  0  0  0  0  0  0  0
   19.8316   29.8230   33.7922 H   0  0  0  0  0  0  0  0  0  0  0  0
  2  1  1  0
  2  3  1  0
  2  6  1  0
  3  4  2  0
  3  5  1  0
  6  7  1  0
  7  8  1  0
  8  9  2  0
  8 10  1  0
 10 11  1  0
 11 12  1  0
 11 14  1  0
 12 13  2  0
 12 16  1  0
 14 15  1  0
 16 17  1  0
 17 18  1  0
 18 19  2  0
 18 20  1  0
  1 21  1  0
  1 22  1  0
  1 23  1  0
  2 24  1  6
  6 25  1  0
  6 26  1  0
  7 27  1  0
  7 28  1  0
 10 29  1  0
 11 30  1  6
 14 31  1  0
 14 32  1  0
 15 33  1  0
 16 34  1  0
 17 35  1  0
 17 36  1  0
M  CHG  3   1   1   5  -1  20  -1
M  END
>  <filename_input>  (6) 
8D19_GSH_docked.sdf

>  <pdb_id>  (6) 
8D19_GSH

>  <pose_rank>  (6) 
5

>  <num_atoms_heavy>  (6) 
20

>  <num_torsions>  (6) 
9

>  <pose>  (6) 
[24.526996071219777, 29.912768831467314, 30.87612050239461, 0.6084826426182082, 0.22861773594231388, 0.3199732475650705, 5.758013369398369, -0.5185753698688258, -5.802221699061847, -2.415309749334527, -12.358584588264447, 24.306552795913998, -8.025904492254169, 3.94389644315523, 1.2483268658168385]

>  <energy>  (6) 
-443.68312170876027

>  <inter_energy>  (6) 
-432.38891386635777

>  <intra_energy>  (6) 
6.4269805513726395

>  <rmsd>  (6) 
3.09621

>  <sdf_rank>  (6) 
0

$$$$

     RDKit          3D

 36 35  0  0  0  0  0  0  0  0999 V2000
   21.3292   26.1947   31.4011 N   0  0  0  0  0  0  0  0  0  0  0  0
   21.0759   27.1143   32.5453 C   0  0  2  0  0  0  0  0  0  0  0  0
   21.2738   28.5614   32.0831 C   0  0  0  0  0  0  0  0  0  0  0  0
   22.2364   28.7990   31.3435 O   0  0  0  0  0  0  0  0  0  0  0  0
   20.4334   29.3929   32.4578 O   0  0  0  0  0  0  0  0  0  0  0  0
   22.0396   26.8190   33.6981 C   0  0  0  0  0  0  0  0  0  0  0  0
   23.3322   26.1492   33.2525 C   0  0  0  0  0  0  0  0  0  0  0  0
   24.5714   26.9632   33.5683 C   0  0  0  0  0  0  0  0  0  0  0  0
   24.6817   27.6072   34.6072 O   0  0  0  0  0  0  0  0  0  0  0  0
   25.5186   26.9635   32.6308 N   0  0  0  0  0  0  0  0  0  0  0  0
   26.7661   27.7008   32.7488 C   0  0  2  0  0  0  0  0  0  0  0  0
   27.3488   28.1645   31.4124 C   0  0  0  0  0  0  0  0  0  0  0  0
   28.1575   29.0885   31.3991 O   0  0  0  0  0  0  0  0  0  0  0  0
   27.8108   26.8878   33.4940 C   0  0  0  0  0  0  0  0  0  0  0  0
   29.0147   27.8975   34.3950 S   0  0  0  0  0  0  0  0  0  0  0  0
   26.9423   27.5278   30.3114 N   0  0  0  0  0  0  0  0  0  0  0  0
   27.5747   27.7537   29.0274 C   0  0  0  0  0  0  0  0  0  0  0  0
   26.8168   27.1428   27.8491 C   0  0  0  0  0  0  0  0  0  0  0  0
   26.4172   27.9036   26.9470 O   0  0  0  0  0  0  0  0  0  0  0  0
   26.6674   25.9026   27.8652 O   0  0  0  0  0  0  0  0  0  0  0  0
   21.5857   25.2637   31.7592 H   0  0  0  0  0  0  0  0  0  0  0  0
   20.4778   26.1190   30.8265 H   0  0  0  0  0  0  0  0  0  0  0  0
   22.0994   26.5657   30.8265 H   0  0  0  0  0  0  0  0  0  0  0  0
   20.0445   26.9651   32.8973 H   0  0  0  0  0  0  0  0  0  0  0  0
   22.2920   27.7685   34.1929 H   0  0  0  0  0  0  0  0  0  0  0  0
   21.5289   26.1186   34.3754 H   0  0  0  0  0  0  0  0  0  0  0  0
   23.4145   25.1772   33.7607 H   0  0  0  0  0  0  0  0  0  0  0  0
   23.2829   26.0434   32.1587 H   0  0  0  0  0  0  0  0  0  0  0  0
   25.3582   26.4113   31.7763 H   0  0  0  0  0  0  0  0  0  0  0  0
   26.5082   28.6065   33.3174 H   0  0  0  0  0  0  0  0  0  0  0  0
   27.2946   26.2371   34.2152 H   0  0  0  0  0  0  0  0  0  0  0  0
   28.3715   26.3170   32.7392 H   0  0  0  0  0  0  0  0  0  0  0  0
   28.8260   27.7391   35.7426 H   0  0  0  0  0  0  0  0  0  0  0  0
   26.1606   26.8602   30.3764 H   0  0  0  0  0  0  0  0  0  0  0  0
   27.6513   28.8389   28.8649 H   0  0  0  0  0  0  0  0  0  0  0  0
   28.5581   27.2624   29.0644 H   0  0  0  0  0  0  0  0  0  0  0  0
  2  1  1  0
  2  3  1  0
  2  6  1  0
  3  4  2  0
  3  5  1  0
  6  7  1  0
  7  8  1  0
  8  9  2  0
  8 10  1  0
 10 11  1  0
 11 12  1  0
 11 14  1  0
 12 13  2  0
 12 16  1  0
 14 15  1  0
 16 17  1  0
 17 18  1  0
 18 19  2  0
 18 20  1  0
  1 21  1  0
  1 22  1  0
  1 23  1  0
  2 24  1  1
  6 25  1  0
  6 26  1  0
  7 27  1  0
  7 28  1  0
 10 29  1  0
 11 30  1  1
 14 31  1  0
 14 32  1  0
 15 33  1  0
 16 34  1  0
 17 35  1  0
 17 36  1  0
M  CHG  3   1   1   5  -1  20  -1
M  END
>  <filename_input>  (7) 
8D19_GSH_docked.sdf

>  <pdb_id>  (7) 
8D19_GSH

>  <pose_rank>  (7) 
6

>  <num_atoms_heavy>  (7) 
20

>  <num_torsions>  (7) 
9

>  <pose>  (7) 
[24.57140154485186, 26.96317132958132, 33.56827360297412, -0.7795260360526847, 3.5094375973847605, 0.36104470557779256, 1.292200332289832, -2.720889665593146, -4.518898784604269, -3.302661218583453, -1.2300892535052004, 6.062486703154508, -1.2497200351194167, 1.7503654734095615, -1.510379146345129]

>  <energy>  (7) 
-201.5182208146048

>  <inter_energy>  (7) 
-213.58044316133928

>  <intra_energy>  (7) 
5.921016860353952

>  <rmsd>  (7) 
7.45648

>  <sdf_rank>  (7) 
0

$$$$

     RDKit          3D

 36 35  0  0  0  0  0  0  0  0999 V2000
   21.0011   31.9942   37.5739 N   0  0  0  0  0  0  0  0  0  0  0  0
   22.2801   31.3268   37.9449 C   0  0  2  0  0  0  0  0  0  0  0  0
   22.2575   30.9876   39.4386 C   0  0  0  0  0  0  0  0  0  0  0  0
   22.0149   29.8168   39.7556 O   0  0  0  0  0  0  0  0  0  0  0  0
   22.5168   31.9070   40.2296 O   0  0  0  0  0  0  0  0  0  0  0  0
   23.4711   32.2451   37.6564 C   0  0  0  0  0  0  0  0  0  0  0  0
   23.6399   32.5745   36.1796 C   0  0  0  0  0  0  0  0  0  0  0  0
   23.0348   31.5341   35.2581 C   0  0  0  0  0  0  0  0  0  0  0  0
   23.2658   30.3355   35.3865 O   0  0  0  0  0  0  0  0  0  0  0  0
   22.2646   32.0059   34.2783 N   0  0  0  0  0  0  0  0  0  0  0  0
   21.6160   31.1616   33.2882 C   0  0  2  0  0  0  0  0  0  0  0  0
   22.5714   30.5575   32.2572 C   0  0  0  0  0  0  0  0  0  0  0  0
   23.6484   31.1075   32.0432 O   0  0  0  0  0  0  0  0  0  0  0  0
   20.5144   31.9177   32.5654 C   0  0  0  0  0  0  0  0  0  0  0  0
   19.0395   32.2022   33.5776 S   0  0  0  0  0  0  0  0  0  0  0  0
   22.1785   29.4436   31.6347 N   0  0  0  0  0  0  0  0  0  0  0  0
   23.0822   28.6863   30.7924 C   0  0  0  0  0  0  0  0  0  0  0  0
   23.6109   27.4092   31.4445 C   0  0  0  0  0  0  0  0  0  0  0  0
   22.7925   26.5206   31.7493 O   0  0  0  0  0  0  0  0  0  0  0  0
   24.8471   27.3381   31.6095 O   0  0  0  0  0  0  0  0  0  0  0  0
   20.4919   32.2600   38.4288 H   0  0  0  0  0  0  0  0  0  0  0  0
   21.2026   32.8377   37.0181 H   0  0  0  0  0  0  0  0  0  0  0  0
   20.4245   31.3465   37.0181 H   0  0  0  0  0  0  0  0  0  0  0  0
   22.3863   30.4091   37.3479 H   0  0  0  0  0  0  0  0  0  0  0  0
   23.3276   33.1855   38.2088 H   0  0  0  0  0  0  0  0  0  0  0  0
   24.3776   31.7090   37.9741 H   0  0  0  0  0  0  0  0  0  0  0  0
   23.1547   33.5414   35.9803 H   0  0  0  0  0  0  0  0  0  0  0  0
   24.7203   32.6016   35.9742 H   0  0  0  0  0  0  0  0  0  0  0  0
   22.1209   33.0241   34.2192 H   0  0  0  0  0  0  0  0  0  0  0  0
   21.1929   30.3242   33.8623 H   0  0  0  0  0  0  0  0  0  0  0  0
   20.9125   32.8935   32.2502 H   0  0  0  0  0  0  0  0  0  0  0  0
   20.2037   31.2953   31.7133 H   0  0  0  0  0  0  0  0  0  0  0  0
   19.3764   32.1372   34.9039 H   0  0  0  0  0  0  0  0  0  0  0  0
   21.2100   29.1147   31.7562 H   0  0  0  0  0  0  0  0  0  0  0  0
   22.5479   28.4097   29.8716 H   0  0  0  0  0  0  0  0  0  0  0  0
   23.9528   29.3300   30.5976 H   0  0  0  0  0  0  0  0  0  0  0  0
  2  1  1  0
  2  3  1  0
  2  6  1  0
  3  4  2  0
  3  5  1  0
  6  7  1  0
  7  8  1  0
  8  9  2  0
  8 10  1  0
 10 11  1  0
 11 12  1  0
 11 14  1  0
 12 13  2  0
 12 16  1  0
 14 15  1  0
 16 17  1  0
 17 18  1  0
 18 19  2  0
 18 20  1  0
  1 21  1  0
  1 22  1  0
  1 23  1  0
  2 24  1  6
  6 25  1  0
  6 26  1  0
  7 27  1  0
  7 28  1  0
 10 29  1  0
 11 30  1  1
 14 31  1  0
 14 32  1  0
 15 33  1  0
 16 34  1  0
 17 35  1  0
 17 36  1  0
M  CHG  3   1   1   5  -1  20  -1
M  END
>  <filename_input>  (8) 
8D19_GSH_docked.sdf

>  <pdb_id>  (8) 
8D19_GSH

>  <pose_rank>  (8) 
7

>  <num_atoms_heavy>  (8) 
20

>  <num_torsions>  (8) 
9

>  <pose>  (8) 
[23.0348314766068, 31.534050084686967, 35.25809135992174, 3.1635490866789873, 1.2324718106496242, 1.8445129286264152, 6.0462058267903975, 19.904924799591726, 0.23003559962609033, -7.086721658163584, -12.438133788083514, -34.82277511691429, -15.335209071918339, -5.538066135804519, 6.14196603506479]

>  <energy>  (8) 
-129.08182939085972

>  <inter_energy>  (8) 
-162.7227560437206

>  <intra_energy>  (8) 
31.61396973630976

>  <rmsd>  (8) 
7.65493

>  <sdf_rank>  (8) 
0

$$$$

     RDKit          3D

 36 35  0  0  0  0  0  0  0  0999 V2000
   29.2373   28.2470   29.3847 N   0  0  0  0  0  0  0  0  0  0  0  0
   28.0363   29.1174   29.2467 C   0  0  2  0  0  0  0  0  0  0  0  0
   28.4098   30.3698   28.4476 C   0  0  0  0  0  0  0  0  0  0  0  0
   29.1679   30.2264   27.4808 O   0  0  0  0  0  0  0  0  0  0  0  0
   27.8988   31.4412   28.8070 O   0  0  0  0  0  0  0  0  0  0  0  0
   27.5136   29.5373   30.6234 C   0  0  0  0  0  0  0  0  0  0  0  0
   27.3463   28.3732   31.5903 C   0  0  0  0  0  0  0  0  0  0  0  0
   25.9445   27.7964   31.6007 C   0  0  0  0  0  0  0  0  0  0  0  0
   25.6196   26.8585   30.8789 O   0  0  0  0  0  0  0  0  0  0  0  0
   25.0779   28.3950   32.4173 N   0  0  0  0  0  0  0  0  0  0  0  0
   23.6866   27.9935   32.5470 C   0  0  2  0  0  0  0  0  0  0  0  0
   23.4612   26.4820   32.4748 C   0  0  0  0  0  0  0  0  0  0  0  0
   22.6113   26.0385   31.7073 O   0  0  0  0  0  0  0  0  0  0  0  0
   22.8227   28.6778   31.5015 C   0  0  0  0  0  0  0  0  0  0  0  0
   21.4802   29.6719   32.2016 S   0  0  0  0  0  0  0  0  0  0  0  0
   24.2147   25.7106   33.2621 N   0  0  0  0  0  0  0  0  0  0  0  0
   24.2203   24.2677   33.1294 C   0  0  0  0  0  0  0  0  0  0  0  0
   23.7679   23.5293   34.3888 C   0  0  0  0  0  0  0  0  0  0  0  0
   24.6409   23.1228   35.1793 O   0  0  0  0  0  0  0  0  0  0  0  0
   22.5355   23.4019   34.5479 O   0  0  0  0  0  0  0  0  0  0  0  0
   29.4413   28.0992   30.3834 H   0  0  0  0  0  0  0  0  0  0  0  0
   29.0570   27.3391   28.9330 H   0  0  0  0  0  0  0  0  0  0  0  0
   30.0441   28.7010   28.9330 H   0  0  0  0  0  0  0  0  0  0  0  0
   27.2492   28.5537   28.7246 H   0  0  0  0  0  0  0  0  0  0  0  0
   28.2234   30.2546   31.0614 H   0  0  0  0  0  0  0  0  0  0  0  0
   26.5170   29.9771   30.4708 H   0  0  0  0  0  0  0  0  0  0  0  0
   28.0489   27.5772   31.3026 H   0  0  0  0  0  0  0  0  0  0  0  0
   27.5465   28.7589   32.6008 H   0  0  0  0  0  0  0  0  0  0  0  0
   25.4120   29.1850   32.9875 H   0  0  0  0  0  0  0  0  0  0  0  0
   23.3915   28.3136   33.5571 H   0  0  0  0  0  0  0  0  0  0  0  0
   23.4644   29.3368   30.8983 H   0  0  0  0  0  0  0  0  0  0  0  0
   22.3546   27.8831   30.9020 H   0  0  0  0  0  0  0  0  0  0  0  0
   21.5429   29.6255   33.5693 H   0  0  0  0  0  0  0  0  0  0  0  0
   24.8061   26.1517   33.9809 H   0  0  0  0  0  0  0  0  0  0  0  0
   23.5454   23.9928   32.3053 H   0  0  0  0  0  0  0  0  0  0  0  0
   25.2615   23.9680   32.9396 H   0  0  0  0  0  0  0  0  0  0  0  0
  2  1  1  0
  2  3  1  0
  2  6  1  0
  3  4  2  0
  3  5  1  0
  6  7  1  0
  7  8  1  0
  8  9  2  0
  8 10  1  0
 10 11  1  0
 11 12  1  0
 11 14  1  0
 12 13  2  0
 12 16  1  0
 14 15  1  0
 16 17  1  0
 17 18  1  0
 18 19  2  0
 18 20  1  0
  1 21  1  0
  1 22  1  0
  1 23  1  0
  2 24  1  6
  6 25  1  0
  6 26  1  0
  7 27  1  0
  7 28  1  0
 10 29  1  0
 11 30  1  1
 14 31  1  0
 14 32  1  0
 15 33  1  0
 16 34  1  0
 17 35  1  0
 17 36  1  0
M  CHG  3   1   1   5  -1  20  -1
M  END
>  <filename_input>  (9) 
8D19_GSH_docked.sdf

>  <pdb_id>  (9) 
8D19_GSH

>  <pose_rank>  (9) 
8

>  <num_atoms_heavy>  (9) 
20

>  <num_torsions>  (9) 
9

>  <pose>  (9) 
[25.944491390442117, 27.796446618114512, 31.600661147435513, 4.509957453115984, -0.9556469301235534, -0.16140103447672702, 2.2384147362455344, 6.125442888114829, 0.47330511910618056, -1.8781146260353467, 2.043174030809242, 1.018520557281455, -0.3852862243984055, -2.0157686541039412, -0.993291532877067]

>  <energy>  (9) 
-307.18503455115587

>  <inter_energy>  (9) 
-337.83083685612974

>  <intra_energy>  (9) 
41.70627384527283

>  <rmsd>  (9) 
5.85121

>  <sdf_rank>  (9) 
0

$$$$

     RDKit          3D

 36 35  0  0  0  0  0  0  0  0999 V2000
   28.1360   28.2115   30.2634 N   0  0  0  0  0  0  0  0  0  0  0  0
   27.6521   29.2111   29.2706 C   0  0  2  0  0  0  0  0  0  0  0  0
   28.5740   29.1944   28.0473 C   0  0  0  0  0  0  0  0  0  0  0  0
   28.0566   29.3776   26.9388 O   0  0  0  0  0  0  0  0  0  0  0  0
   29.7853   29.0298   28.2563 O   0  0  0  0  0  0  0  0  0  0  0  0
   27.6491   30.6167   29.8782 C   0  0  0  0  0  0  0  0  0  0  0  0
   27.1185   30.6605   31.3045 C   0  0  0  0  0  0  0  0  0  0  0  0
   25.6568   30.2741   31.4148 C   0  0  0  0  0  0  0  0  0  0  0  0
   24.7807   30.8456   30.7728 O   0  0  0  0  0  0  0  0  0  0  0  0
   25.3792   29.2984   32.2791 N   0  0  0  0  0  0  0  0  0  0  0  0
   24.0343   28.8078   32.5328 C   0  0  2  0  0  0  0  0  0  0  0  0
   23.4472   27.9712   31.3944 C   0  0  0  0  0  0  0  0  0  0  0  0
   24.1968   27.2797   30.7102 O   0  0  0  0  0  0  0  0  0  0  0  0
   23.0879   29.9528   32.8506 C   0  0  0  0  0  0  0  0  0  0  0  0
   22.1195   29.7012   34.3604 S   0  0  0  0  0  0  0  0  0  0  0  0
   22.1276   28.0362   31.2022 N   0  0  0  0  0  0  0  0  0  0  0  0
   21.4493   27.1404   30.2871 C   0  0  0  0  0  0  0  0  0  0  0  0
   21.2848   25.7183   30.8223 C   0  0  0  0  0  0  0  0  0  0  0  0
   21.5861   24.7685   30.0744 O   0  0  0  0  0  0  0  0  0  0  0  0
   20.8727   25.6088   31.9965 O   0  0  0  0  0  0  0  0  0  0  0  0
   27.9655   28.5637   31.2162 H   0  0  0  0  0  0  0  0  0  0  0  0
   27.6316   27.3234   30.1302 H   0  0  0  0  0  0  0  0  0  0  0  0
   29.1455   28.0563   30.1302 H   0  0  0  0  0  0  0  0  0  0  0  0
   26.6250   28.9489   28.9766 H   0  0  0  0  0  0  0  0  0  0  0  0
   28.6809   30.9981   29.8786 H   0  0  0  0  0  0  0  0  0  0  0  0
   26.9768   31.2334   29.2637 H   0  0  0  0  0  0  0  0  0  0  0  0
   27.7102   29.9653   31.9182 H   0  0  0  0  0  0  0  0  0  0  0  0
   27.2068   31.7003   31.6523 H   0  0  0  0  0  0  0  0  0  0  0  0
   26.1599   28.8685   32.7954 H   0  0  0  0  0  0  0  0  0  0  0  0
   24.1344   28.1410   33.4019 H   0  0  0  0  0  0  0  0  0  0  0  0
   23.6817   30.8713   32.9681 H   0  0  0  0  0  0  0  0  0  0  0  0
   22.3725   30.0184   32.0176 H   0  0  0  0  0  0  0  0  0  0  0  0
   22.9174   29.9085   35.4546 H   0  0  0  0  0  0  0  0  0  0  0  0
   21.5786   28.7397   31.7165 H   0  0  0  0  0  0  0  0  0  0  0  0
   20.4500   27.5498   30.0782 H   0  0  0  0  0  0  0  0  0  0  0  0
   22.0742   27.0721   29.3844 H   0  0  0  0  0  0  0  0  0  0  0  0
  2  1  1  0
  2  3  1  0
  2  6  1  0
  3  4  2  0
  3  5  1  0
  6  7  1  0
  7  8  1  0
  8  9  2  0
  8 10  1  0
 10 11  1  0
 11 12  1  0
 11 14  1  0
 12 13  2  0
 12 16  1  0
 14 15  1  0
 16 17  1  0
 17 18  1  0
 18 19  2  0
 18 20  1  0
  1 21  1  0
  1 22  1  0
  1 23  1  0
  2 24  1  6
  6 25  1  0
  6 26  1  0
  7 27  1  0
  7 28  1  0
 10 29  1  0
 11 30  1  1
 14 31  1  0
 14 32  1  0
 15 33  1  0
 16 34  1  0
 17 35  1  0
 17 36  1  0
M  CHG  3   1   1   5  -1  20  -1
M  END
>  <filename_input>  (10) 
8D19_GSH_docked.sdf

>  <pdb_id>  (10) 
8D19_GSH

>  <pose_rank>  (10) 
9

>  <num_atoms_heavy>  (10) 
20

>  <num_torsions>  (10) 
9

>  <pose>  (10) 
[25.656802866563304, 30.27408293664763, 31.414798016258988, -0.02799544709832151, 0.6394837446706945, 0.5301650149016099, -0.34066648939850336, 0.35652447998697856, 0.5946500293987617, -0.0562168699796858, -3.628950854074579, -2.4383861976249266, -3.269118586840735, -2.6628281519210146, 5.153569717093829]

>  <energy>  (10) 
-368.54964063310405

>  <inter_energy>  (10) 
-399.0330646789284

>  <intra_energy>  (10) 
29.846528440697476

>  <rmsd>  (10) 
4.63007

>  <sdf_rank>  (10) 
0

$$$$

     RDKit          3D

 36 35  0  0  0  0  0  0  0  0999 V2000
   20.2936   27.4876   32.1722 N   0  0  0  0  0  0  0  0  0  0  0  0
   20.3851   26.2676   31.3224 C   0  0  2  0  0  0  0  0  0  0  0  0
   21.2266   25.2111   32.0451 C   0  0  0  0  0  0  0  0  0  0  0  0
   21.7973   25.5503   33.0888 O   0  0  0  0  0  0  0  0  0  0  0  0
   21.2521   24.0746   31.5493 O   0  0  0  0  0  0  0  0  0  0  0  0
   21.0381   26.5954   29.9767 C   0  0  0  0  0  0  0  0  0  0  0  0
   22.5066   26.9803   30.0922 C   0  0  0  0  0  0  0  0  0  0  0  0
   22.7221   28.4556   30.3658 C   0  0  0  0  0  0  0  0  0  0  0  0
   22.2196   29.3293   29.6654 O   0  0  0  0  0  0  0  0  0  0  0  0
   23.5203   28.7436   31.3934 N   0  0  0  0  0  0  0  0  0  0  0  0
   23.8578   30.1000   31.7937 C   0  0  2  0  0  0  0  0  0  0  0  0
   25.3507   30.4244   31.7120 C   0  0  0  0  0  0  0  0  0  0  0  0
   26.0001   30.5244   32.7494 O   0  0  0  0  0  0  0  0  0  0  0  0
   23.3591   30.3932   33.1983 C   0  0  0  0  0  0  0  0  0  0  0  0
   21.5859   30.7530   33.2826 S   0  0  0  0  0  0  0  0  0  0  0  0
   25.8789   30.5825   30.4960 N   0  0  0  0  0  0  0  0  0  0  0  0
   27.3102   30.6954   30.2997 C   0  0  0  0  0  0  0  0  0  0  0  0
   27.8122   30.0332   29.0170 C   0  0  0  0  0  0  0  0  0  0  0  0
   28.5292   30.7032   28.2493 O   0  0  0  0  0  0  0  0  0  0  0  0
   27.4791   28.8427   28.8370 O   0  0  0  0  0  0  0  0  0  0  0  0
   20.3139   27.2164   33.1656 H   0  0  0  0  0  0  0  0  0  0  0  0
   21.0904   28.1079   31.9692 H   0  0  0  0  0  0  0  0  0  0  0  0
   19.4131   27.9821   31.9692 H   0  0  0  0  0  0  0  0  0  0  0  0
   19.3694   25.8861   31.1409 H   0  0  0  0  0  0  0  0  0  0  0  0
   20.9599   25.7111   29.3271 H   0  0  0  0  0  0  0  0  0  0  0  0
   20.5071   27.4653   29.5627 H   0  0  0  0  0  0  0  0  0  0  0  0
   22.9545   26.4039   30.9151 H   0  0  0  0  0  0  0  0  0  0  0  0
   22.9781   26.7571   29.1238 H   0  0  0  0  0  0  0  0  0  0  0  0
   23.9199   27.9628   31.9334 H   0  0  0  0  0  0  0  0  0  0  0  0
   23.3489   30.7466   31.0636 H   0  0  0  0  0  0  0  0  0  0  0  0
   23.5658   29.5167   33.8300 H   0  0  0  0  0  0  0  0  0  0  0  0
   23.8862   31.2945   33.5443 H   0  0  0  0  0  0  0  0  0  0  0  0
   21.1978   30.8318   34.5941 H   0  0  0  0  0  0  0  0  0  0  0  0
   25.2543   30.6252   29.6782 H   0  0  0  0  0  0  0  0  0  0  0  0
   27.5719   31.7632   30.2638 H   0  0  0  0  0  0  0  0  0  0  0  0
   27.7905   30.1714   31.1392 H   0  0  0  0  0  0  0  0  0  0  0  0
  2  1  1  0
  2  3  1  0
  2  6  1  0
  3  4  2  0
  3  5  1  0
  6  7  1  0
  7  8  1  0
  8  9  2  0
  8 10  1  0
 10 11  1  0
 11 12  1  0
 11 14  1  0
 12 13  2  0
 12 16  1  0
 14 15  1  0
 16 17  1  0
 17 18  1  0
 18 19  2  0
 18 20  1  0
  1 21  1  0
  1 22  1  0
  1 23  1  0
  2 24  1  6
  6 25  1  0
  6 26  1  0
  7 27  1  0
  7 28  1  0
 10 29  1  0
 11 30  1  6
 14 31  1  0
 14 32  1  0
 15 33  1  0
 16 34  1  0
 17 35  1  0
 17 36  1  0
M  CHG  3   1   1   5  -1  20  -1
M  END
>  <filename_input>  (11) 
8D19_GSH_docked.sdf

>  <pdb_id>  (11) 
8D19_GSH

>  <pose_rank>  (11) 
10

>  <num_atoms_heavy>  (11) 
20

>  <num_torsions>  (11) 
9

>  <pose>  (11) 
[22.722136506275408, 28.455643491271694, 30.365768063121873, -0.35386388209943814, 1.783985340698493, -1.3389600228252985, -0.29240163403657754, 6.252713079722188, 2.5114730538607946, 3.5763483195725856, -0.6788928126967215, 7.69605354345732, 4.21933621993883, 1.8963048204962945, -0.2372328560562185]

>  <energy>  (11) 
-284.5272380034945

>  <inter_energy>  (11) 
-293.07644609243465

>  <intra_energy>  (11) 
10.337255112684865

>  <rmsd>  (11) 
6.4308

>  <sdf_rank>  (11) 
0

$$$$

     RDKit          3D

 36 35  0  0  0  0  0  0  0  0999 V2000
   31.3823   28.6668   35.1169 N   0  0  0  0  0  0  0  0  0  0  0  0
   30.4139   28.5913   36.2463 C   0  0  2  0  0  0  0  0  0  0  0  0
   31.1701   28.2683   37.5387 C   0  0  0  0  0  0  0  0  0  0  0  0
   31.3035   29.1782   38.3660 O   0  0  0  0  0  0  0  0  0  0  0  0
   31.5705   27.1032   37.6816 O   0  0  0  0  0  0  0  0  0  0  0  0
   29.3698   27.5010   35.9894 C   0  0  0  0  0  0  0  0  0  0  0  0
   28.1408   27.6154   36.8807 C   0  0  0  0  0  0  0  0  0  0  0  0
   26.8871   28.0158   36.1284 C   0  0  0  0  0  0  0  0  0  0  0  0
   26.8807   28.9327   35.3126 O   0  0  0  0  0  0  0  0  0  0  0  0
   25.7847   27.3325   36.4346 N   0  0  0  0  0  0  0  0  0  0  0  0
   24.4870   27.5879   35.8310 C   0  0  2  0  0  0  0  0  0  0  0  0
   23.3064   27.4237   36.7901 C   0  0  0  0  0  0  0  0  0  0  0  0
   22.5839   28.3892   37.0225 O   0  0  0  0  0  0  0  0  0  0  0  0
   24.2688   26.7043   34.6147 C   0  0  0  0  0  0  0  0  0  0  0  0
   23.4557   27.5502   33.2348 S   0  0  0  0  0  0  0  0  0  0  0  0
   23.1188   26.2180   37.3321 N   0  0  0  0  0  0  0  0  0  0  0  0
   21.9255   25.9055   38.0924 C   0  0  0  0  0  0  0  0  0  0  0  0
   20.7796   25.3534   37.2450 C   0  0  0  0  0  0  0  0  0  0  0  0
   20.9799   24.3137   36.5884 O   0  0  0  0  0  0  0  0  0  0  0  0
   19.7013   25.9827   37.2877 O   0  0  0  0  0  0  0  0  0  0  0  0
   32.3395   28.7414   35.4898 H   0  0  0  0  0  0  0  0  0  0  0  0
   31.3038   27.8171   34.5400 H   0  0  0  0  0  0  0  0  0  0  0  0
   31.1731   29.4940   34.5400 H   0  0  0  0  0  0  0  0  0  0  0  0
   29.9009   29.5601   36.3376 H   0  0  0  0  0  0  0  0  0  0  0  0
   29.0465   27.5688   34.9402 H   0  0  0  0  0  0  0  0  0  0  0  0
   29.8464   26.5363   36.2176 H   0  0  0  0  0  0  0  0  0  0  0  0
   27.9644   26.6403   37.3583 H   0  0  0  0  0  0  0  0  0  0  0  0
   28.3453   28.4074   37.6161 H   0  0  0  0  0  0  0  0  0  0  0  0
   25.8559   26.5826   37.1372 H   0  0  0  0  0  0  0  0  0  0  0  0
   24.5147   28.6470   35.5352 H   0  0  0  0  0  0  0  0  0  0  0  0
   25.2480   26.3403   34.2701 H   0  0  0  0  0  0  0  0  0  0  0  0
   23.6026   25.8867   34.9273 H   0  0  0  0  0  0  0  0  0  0  0  0
   22.5688   28.4728   33.7236 H   0  0  0  0  0  0  0  0  0  0  0  0
   23.8394   25.4928   37.2068 H   0  0  0  0  0  0  0  0  0  0  0  0
   22.1861   25.1555   38.8537 H   0  0  0  0  0  0  0  0  0  0  0  0
   21.5712   26.8488   38.5336 H   0  0  0  0  0  0  0  0  0  0  0  0
  2  1  1  0
  2  3  1  0
  2  6  1  0
  3  4  2  0
  3  5  1  0
  6  7  1  0
  7  8  1  0
  8  9  2  0
  8 10  1  0
 10 11  1  0
 11 12  1  0
 11 14  1  0
 12 13  2  0
 12 16  1  0
 14 15  1  0
 16 17  1  0
 17 18  1  0
 18 19  2  0
 18 20  1  0
  1 21  1  0
  1 22  1  0
  1 23  1  0
  2 24  1  1
  6 25  1  0
  6 26  1  0
  7 27  1  0
  7 28  1  0
 10 29  1  0
 11 30  1  6
 14 31  1  0
 14 32  1  0
 15 33  1  0
 16 34  1  0
 17 35  1  0
 17 36  1  0
M  CHG  3   1   1   5  -1  20  -1
M  END
>  <filename_input>  (12) 
8D19_GSH_docked.sdf

>  <pdb_id>  (12) 
8D19_GSH

>  <pose_rank>  (12) 
11

>  <num_atoms_heavy>  (12) 
20

>  <num_torsions>  (12) 
9

>  <pose>  (12) 
[26.887129910577077, 28.015766665814184, 36.12839073937183, 5.764670709827856, 0.5095143656609556, 2.722179633186818, -0.17306963875228526, -2.8634788828017137, -1.5223034283519343, -6.987799230906458, 5.168101787282744, -0.9296861256948625, -3.014946103649848, 0.6742441952438796, 4.968636312580901]

>  <energy>  (12) 
-85.62261159326381

>  <inter_energy>  (12) 
-80.50682773140768

>  <intra_energy>  (12) 
0.4429885217912788

>  <rmsd>  (12) 
7.60554

>  <sdf_rank>  (12) 
0

$$$$

     RDKit          3D

 36 35  0  0  0  0  0  0  0  0999 V2000
   33.2994   32.3788   36.5503 N   0  0  0  0  0  0  0  0  0  0  0  0
   32.3572   33.3884   37.1089 C   0  0  2  0  0  0  0  0  0  0  0  0
   33.0119   34.0802   38.3087 C   0  0  0  0  0  0  0  0  0  0  0  0
   33.3359   33.3726   39.2701 O   0  0  0  0  0  0  0  0  0  0  0  0
   33.2020   35.3025   38.2200 O   0  0  0  0  0  0  0  0  0  0  0  0
   31.0569   32.7192   37.5631 C   0  0  0  0  0  0  0  0  0  0  0  0
   30.0364   33.6970   38.1293 C   0  0  0  0  0  0  0  0  0  0  0  0
   28.6636   33.5654   37.4999 C   0  0  0  0  0  0  0  0  0  0  0  0
   27.8920   32.6597   37.8009 O   0  0  0  0  0  0  0  0  0  0  0  0
   28.3615   34.4748   36.5737 N   0  0  0  0  0  0  0  0  0  0  0  0
   27.1009   34.4965   35.8496 C   0  0  2  0  0  0  0  0  0  0  0  0
   25.9493   35.1503   36.6158 C   0  0  0  0  0  0  0  0  0  0  0  0
   26.1910   35.7687   37.6488 O   0  0  0  0  0  0  0  0  0  0  0  0
   26.6899   33.0957   35.4298 C   0  0  0  0  0  0  0  0  0  0  0  0
   27.0394   32.7227   33.6921 S   0  0  0  0  0  0  0  0  0  0  0  0
   24.7206   35.0137   36.1113 N   0  0  0  0  0  0  0  0  0  0  0  0
   23.5948   35.7531   36.6457 C   0  0  0  0  0  0  0  0  0  0  0  0
   22.8430   35.0181   37.7549 C   0  0  0  0  0  0  0  0  0  0  0  0
   22.0864   34.0818   37.4338 O   0  0  0  0  0  0  0  0  0  0  0  0
   23.0595   35.4016   38.9238 O   0  0  0  0  0  0  0  0  0  0  0  0
   33.7651   31.8799   37.3217 H   0  0  0  0  0  0  0  0  0  0  0  0
   32.7775   31.7055   35.9714 H   0  0  0  0  0  0  0  0  0  0  0  0
   34.0071   32.8531   35.9714 H   0  0  0  0  0  0  0  0  0  0  0  0
   32.1231   34.1249   36.3261 H   0  0  0  0  0  0  0  0  0  0  0  0
   30.6076   32.2087   36.6985 H   0  0  0  0  0  0  0  0  0  0  0  0
   31.3179   32.0198   38.3711 H   0  0  0  0  0  0  0  0  0  0  0  0
   29.9432   33.5167   39.2104 H   0  0  0  0  0  0  0  0  0  0  0  0
   30.4000   34.7111   37.9069 H   0  0  0  0  0  0  0  0  0  0  0  0
   29.0589   35.2018   36.3593 H   0  0  0  0  0  0  0  0  0  0  0  0
   27.2924   35.1211   34.9646 H   0  0  0  0  0  0  0  0  0  0  0  0
   27.2328   32.3724   36.0560 H   0  0  0  0  0  0  0  0  0  0  0  0
   25.5996   33.0288   35.5594 H   0  0  0  0  0  0  0  0  0  0  0  0
   27.9748   31.7245   33.6185 H   0  0  0  0  0  0  0  0  0  0  0  0
   24.5695   34.3675   35.3236 H   0  0  0  0  0  0  0  0  0  0  0  0
   23.9668   36.7055   37.0514 H   0  0  0  0  0  0  0  0  0  0  0  0
   22.8843   35.8961   35.8182 H   0  0  0  0  0  0  0  0  0  0  0  0
  2  1  1  0
  2  3  1  0
  2  6  1  0
  3  4  2  0
  3  5  1  0
  6  7  1  0
  7  8  1  0
  8  9  2  0
  8 10  1  0
 10 11  1  0
 11 12  1  0
 11 14  1  0
 12 13  2  0
 12 16  1  0
 14 15  1  0
 16 17  1  0
 17 18  1  0
 18 19  2  0
 18 20  1  0
  1 21  1  0
  1 22  1  0
  1 23  1  0
  2 24  1  6
  6 25  1  0
  6 26  1  0
  7 27  1  0
  7 28  1  0
 10 29  1  0
 11 30  1  6
 14 31  1  0
 14 32  1  0
 15 33  1  0
 16 34  1  0
 17 35  1  0
 17 36  1  0
M  CHG  3   1   1   5  -1  20  -1
M  END
>  <filename_input>  (13) 
8D19_GSH_docked.sdf

>  <pdb_id>  (13) 
8D19_GSH

>  <pose_rank>  (13) 
12

>  <num_atoms_heavy>  (13) 
20

>  <num_torsions>  (13) 
9

>  <pose>  (13) 
[28.663614954875978, 33.565437164153536, 37.49991193532982, -2.572695120802407, 0.2685570194998498, -1.3525590737353848, -4.3056195557419255, -2.5546693673198977, -8.073770908271454, 2.654601398297273, 2.8117692848101803, 3.466204165430428, 0.11289080768417484, -1.6702719968866762, -0.6336897412072646]

>  <energy>  (13) 
-16.559746015827137

>  <inter_energy>  (13) 
-47.1222475269508

>  <intra_energy>  (13) 
29.776883245316803

>  <rmsd>  (13) 
8.45954

>  <sdf_rank>  (13) 
0

$$$$

     RDKit          3D

 36 35  0  0  0  0  0  0  0  0999 V2000
   28.3409   28.6868   28.5464 N   0  0  0  0  0  0  0  0  0  0  0  0
   27.8093   29.1809   29.8472 C   0  0  2  0  0  0  0  0  0  0  0  0
   27.6729   28.0028   30.8169 C   0  0  0  0  0  0  0  0  0  0  0  0
   28.4286   27.9774   31.7958 O   0  0  0  0  0  0  0  0  0  0  0  0
   26.7888   27.1688   30.5700 O   0  0  0  0  0  0  0  0  0  0  0  0
   26.4381   29.8352   29.6558 C   0  0  0  0  0  0  0  0  0  0  0  0
   25.8800   30.4585   30.9278 C   0  0  0  0  0  0  0  0  0  0  0  0
   24.5086   29.9330   31.3037 C   0  0  0  0  0  0  0  0  0  0  0  0
   24.3487   29.1085   32.1986 O   0  0  0  0  0  0  0  0  0  0  0  0
   23.4918   30.3964   30.5775 N   0  0  0  0  0  0  0  0  0  0  0  0
   22.1099   29.9921   30.7794 C   0  0  2  0  0  0  0  0  0  0  0  0
   21.2719   30.9981   31.5709 C   0  0  0  0  0  0  0  0  0  0  0  0
   20.1378   30.6869   31.9246 O   0  0  0  0  0  0  0  0  0  0  0  0
   22.0330   28.6350   31.4575 C   0  0  0  0  0  0  0  0  0  0  0  0
   21.5574   27.2886   30.3432 S   0  0  0  0  0  0  0  0  0  0  0  0
   21.8278   32.1813   31.8423 N   0  0  0  0  0  0  0  0  0  0  0  0
   21.2015   33.1239   32.7473 C   0  0  0  0  0  0  0  0  0  0  0  0
   21.9064   34.4783   32.8142 C   0  0  0  0  0  0  0  0  0  0  0  0
   22.9565   34.6291   32.1608 O   0  0  0  0  0  0  0  0  0  0  0  0
   21.3601   35.3570   33.5141 O   0  0  0  0  0  0  0  0  0  0  0  0
   29.0846   27.9956   28.7197 H   0  0  0  0  0  0  0  0  0  0  0  0
   27.5804   28.2455   28.0100 H   0  0  0  0  0  0  0  0  0  0  0  0
   28.7254   29.4776   28.0100 H   0  0  0  0  0  0  0  0  0  0  0  0
   28.5063   29.9289   30.2530 H   0  0  0  0  0  0  0  0  0  0  0  0
   26.5316   30.6232   28.8940 H   0  0  0  0  0  0  0  0  0  0  0  0
   25.7403   29.0413   29.3513 H   0  0  0  0  0  0  0  0  0  0  0  0
   26.5738   30.2450   31.7543 H   0  0  0  0  0  0  0  0  0  0  0  0
   25.7747   31.5375   30.7418 H   0  0  0  0  0  0  0  0  0  0  0  0
   23.6960   31.0780   29.8327 H   0  0  0  0  0  0  0  0  0  0  0  0
   21.6784   29.9405   29.7688 H   0  0  0  0  0  0  0  0  0  0  0  0
   23.0212   28.4023   31.8810 H   0  0  0  0  0  0  0  0  0  0  0  0
   21.2513   28.7051   32.2281 H   0  0  0  0  0  0  0  0  0  0  0  0
   21.1728   26.1999   31.0806 H   0  0  0  0  0  0  0  0  0  0  0  0
   22.7230   32.4300   31.3978 H   0  0  0  0  0  0  0  0  0  0  0  0
   20.1660   33.2882   32.4145 H   0  0  0  0  0  0  0  0  0  0  0  0
   21.2562   32.6848   33.7544 H   0  0  0  0  0  0  0  0  0  0  0  0
  2  1  1  0
  2  3  1  0
  2  6  1  0
  3  4  2  0
  3  5  1  0
  6  7  1  0
  7  8  1  0
  8  9  2  0
  8 10  1  0
 10 11  1  0
 11 12  1  0
 11 14  1  0
 12 13  2  0
 12 16  1  0
 14 15  1  0
 16 17  1  0
 17 18  1  0
 18 19  2  0
 18 20  1  0
  1 21  1  0
  1 22  1  0
  1 23  1  0
  2 24  1  1
  6 25  1  0
  6 26  1  0
  7 27  1  0
  7 28  1  0
 10 29  1  0
 11 30  1  6
 14 31  1  0
 14 32  1  0
 15 33  1  0
 16 34  1  0
 17 35  1  0
 17 36  1  0
M  CHG  3   1   1   5  -1  20  -1
M  END
>  <filename_input>  (14) 
8D19_GSH_docked.sdf

>  <pdb_id>  (14) 
8D19_GSH

>  <pose_rank>  (14) 
13

>  <num_atoms_heavy>  (14) 
20

>  <num_torsions>  (14) 
9

>  <pose>  (14) 
[24.50861065015437, 29.933024606972925, 31.30368007071113, -3.1059885586347518, -0.18149046480551873, -0.5172360534240935, 2.422922126474377, -0.6835934811439465, 4.555391175491766, -0.6202066863595894, -9.423635150539631, -6.00513330777411, -1.3276831435630043, -0.40636583394819636, -0.7099537616053604]

>  <energy>  (14) 
-356.86560077522785

>  <inter_energy>  (14) 
-400.18847553618696

>  <intra_energy>  (14) 
39.56550337610333

>  <rmsd>  (14) 
1.64597

>  <sdf_rank>  (14) 
0

$$$$

     RDKit          3D

 36 35  0  0  0  0  0  0  0  0999 V2000
   19.7036   29.6813   33.2648 N   0  0  0  0  0  0  0  0  0  0  0  0
   21.1305   29.3948   33.5823 C   0  0  2  0  0  0  0  0  0  0  0  0
   21.3197   29.3979   35.1024 C   0  0  0  0  0  0  0  0  0  0  0  0
   21.7907   30.4188   35.6181 O   0  0  0  0  0  0  0  0  0  0  0  0
   20.9564   28.3843   35.7179 O   0  0  0  0  0  0  0  0  0  0  0  0
   22.0446   30.4543   32.9602 C   0  0  0  0  0  0  0  0  0  0  0  0
   22.8576   29.9380   31.7811 C   0  0  0  0  0  0  0  0  0  0  0  0
   24.2916   29.6022   32.1400 C   0  0  0  0  0  0  0  0  0  0  0  0
   25.2350   30.2986   31.7777 O   0  0  0  0  0  0  0  0  0  0  0  0
   24.4659   28.4840   32.8437 N   0  0  0  0  0  0  0  0  0  0  0  0
   25.7686   27.9923   33.2620 C   0  0  2  0  0  0  0  0  0  0  0  0
   25.7238   26.6615   34.0154 C   0  0  0  0  0  0  0  0  0  0  0  0
   26.5865   26.4184   34.8548 O   0  0  0  0  0  0  0  0  0  0  0  0
   26.4927   29.0228   34.1112 C   0  0  0  0  0  0  0  0  0  0  0  0
   28.2437   29.2152   33.6899 S   0  0  0  0  0  0  0  0  0  0  0  0
   24.7308   25.8203   33.7172 N   0  0  0  0  0  0  0  0  0  0  0  0
   24.4834   24.6293   34.5045 C   0  0  0  0  0  0  0  0  0  0  0  0
   24.1243   23.4002   33.6701 C   0  0  0  0  0  0  0  0  0  0  0  0
   24.6504   22.3109   33.9684 O   0  0  0  0  0  0  0  0  0  0  0  0
   23.3009   23.5744   32.7470 O   0  0  0  0  0  0  0  0  0  0  0  0
   19.1718   29.7881   34.1404 H   0  0  0  0  0  0  0  0  0  0  0  0
   19.6417   30.5515   32.7172 H   0  0  0  0  0  0  0  0  0  0  0  0
   19.3106   28.9025   32.7172 H   0  0  0  0  0  0  0  0  0  0  0  0
   21.3942   28.4105   33.1680 H   0  0  0  0  0  0  0  0  0  0  0  0
   21.4214   31.2917   32.6135 H   0  0  0  0  0  0  0  0  0  0  0  0
   22.7603   30.7608   33.7373 H   0  0  0  0  0  0  0  0  0  0  0  0
   22.3729   29.0293   31.3944 H   0  0  0  0  0  0  0  0  0  0  0  0
   22.8901   30.7426   31.0317 H   0  0  0  0  0  0  0  0  0  0  0  0
   23.6324   27.9384   33.1056 H   0  0  0  0  0  0  0  0  0  0  0  0
   26.3183   27.8124   32.3262 H   0  0  0  0  0  0  0  0  0  0  0  0
   25.9947   29.9945   33.9774 H   0  0  0  0  0  0  0  0  0  0  0  0
   26.4500   28.6684   35.1517 H   0  0  0  0  0  0  0  0  0  0  0  0
   28.9838   29.2965   34.8399 H   0  0  0  0  0  0  0  0  0  0  0  0
   24.1261   26.0228   32.9083 H   0  0  0  0  0  0  0  0  0  0  0  0
   25.3906   24.4020   35.0836 H   0  0  0  0  0  0  0  0  0  0  0  0
   23.6164   24.8446   35.1463 H   0  0  0  0  0  0  0  0  0  0  0  0
  2  1  1  0
  2  3  1  0
  2  6  1  0
  3  4  2  0
  3  5  1  0
  6  7  1  0
  7  8  1  0
  8  9  2  0
  8 10  1  0
 10 11  1  0
 11 12  1  0
 11 14  1  0
 12 13  2  0
 12 16  1  0
 14 15  1  0
 16 17  1  0
 17 18  1  0
 18 19  2  0
 18 20  1  0
  1 21  1  0
  1 22  1  0
  1 23  1  0
  2 24  1  6
  6 25  1  0
  6 26  1  0
  7 27  1  0
  7 28  1  0
 10 29  1  0
 11 30  1  6
 14 31  1  0
 14 32  1  0
 15 33  1  0
 16 34  1  0
 17 35  1  0
 17 36  1  0
M  CHG  3   1   1   5  -1  20  -1
M  END
>  <filename_input>  (15) 
8D19_GSH_docked.sdf

>  <pdb_id>  (15) 
8D19_GSH

>  <pose_rank>  (15) 
14

>  <num_atoms_heavy>  (15) 
20

>  <num_torsions>  (15) 
9

>  <pose>  (15) 
[24.29159023575676, 29.60218393346488, 32.13996513389643, 1.446044902478115, 2.4432771818785817, -1.8057191480897186, -1.2484448832890256, 6.008214346427993, -0.555051296549815, 1.9660055489436534, 4.568379134396497, 0.6513142050547341, -0.7287733834937984, 2.03604024727993, 5.031284987536158]

>  <energy>  (15) 
-179.9631629742921

>  <inter_energy>  (15) 
-190.9715483853757

>  <intra_energy>  (15) 
15.627836342361483

>  <rmsd>  (15) 
7.98001

>  <sdf_rank>  (15) 
0

$$$$

     RDKit          3D

 36 35  0  0  0  0  0  0  0  0999 V2000
   29.0682   31.7820   35.7550 N   0  0  0  0  0  0  0  0  0  0  0  0
   28.2579   32.3149   36.8857 C   0  0  2  0  0  0  0  0  0  0  0  0
   28.9078   31.9031   38.2103 C   0  0  0  0  0  0  0  0  0  0  0  0
   29.5937   32.7483   38.7980 O   0  0  0  0  0  0  0  0  0  0  0  0
   28.6746   30.7561   38.6203 O   0  0  0  0  0  0  0  0  0  0  0  0
   26.8306   31.7628   36.8336 C   0  0  0  0  0  0  0  0  0  0  0  0
   26.6173   30.7344   35.7313 C   0  0  0  0  0  0  0  0  0  0  0  0
   25.4735   31.0806   34.7987 C   0  0  0  0  0  0  0  0  0  0  0  0
   25.6128   31.8507   33.8532 O   0  0  0  0  0  0  0  0  0  0  0  0
   24.2987   30.5235   35.0912 N   0  0  0  0  0  0  0  0  0  0  0  0
   23.0862   30.7537   34.3227 C   0  0  2  0  0  0  0  0  0  0  0  0
   22.2129   31.8912   34.8558 C   0  0  0  0  0  0  0  0  0  0  0  0
   21.4220   31.6633   35.7671 O   0  0  0  0  0  0  0  0  0  0  0  0
   22.2531   29.4870   34.2274 C   0  0  0  0  0  0  0  0  0  0  0  0
   23.1580   28.0671   33.5598 S   0  0  0  0  0  0  0  0  0  0  0  0
   22.3604   33.0934   34.2940 N   0  0  0  0  0  0  0  0  0  0  0  0
   21.7307   34.2735   34.8513 C   0  0  0  0  0  0  0  0  0  0  0  0
   21.7083   35.4697   33.9003 C   0  0  0  0  0  0  0  0  0  0  0  0
   20.6045   35.9628   33.5992 O   0  0  0  0  0  0  0  0  0  0  0  0
   22.8168   35.8864   33.5026 O   0  0  0  0  0  0  0  0  0  0  0  0
   29.8708   31.2542   36.1266 H   0  0  0  0  0  0  0  0  0  0  0  0
   28.4849   31.1591   35.1783 H   0  0  0  0  0  0  0  0  0  0  0  0
   29.4091   32.5644   35.1783 H   0  0  0  0  0  0  0  0  0  0  0  0
   28.2179   33.4113   36.8062 H   0  0  0  0  0  0  0  0  0  0  0  0
   26.6050   31.2888   37.8003 H   0  0  0  0  0  0  0  0  0  0  0  0
   26.1633   32.6105   36.6188 H   0  0  0  0  0  0  0  0  0  0  0  0
   27.5410   30.6620   35.1384 H   0  0  0  0  0  0  0  0  0  0  0  0
   26.3615   29.7827   36.2199 H   0  0  0  0  0  0  0  0  0  0  0  0
   24.2469   29.8956   35.9061 H   0  0  0  0  0  0  0  0  0  0  0  0
   23.4356   31.0584   33.3252 H   0  0  0  0  0  0  0  0  0  0  0  0
   21.8975   29.2289   35.2359 H   0  0  0  0  0  0  0  0  0  0  0  0
   21.4276   29.6975   33.5316 H   0  0  0  0  0  0  0  0  0  0  0  0
   23.6421   27.3076   34.5921 H   0  0  0  0  0  0  0  0  0  0  0  0
   22.9355   33.1842   33.4443 H   0  0  0  0  0  0  0  0  0  0  0  0
   20.6930   34.0208   35.1149 H   0  0  0  0  0  0  0  0  0  0  0  0
   22.3273   34.5714   35.7261 H   0  0  0  0  0  0  0  0  0  0  0  0
  2  1  1  0
  2  3  1  0
  2  6  1  0
  3  4  2  0
  3  5  1  0
  6  7  1  0
  7  8  1  0
  8  9  2  0
  8 10  1  0
 10 11  1  0
 11 12  1  0
 11 14  1  0
 12 13  2  0
 12 16  1  0
 14 15  1  0
 16 17  1  0
 17 18  1  0
 18 19  2  0
 18 20  1  0
  1 21  1  0
  1 22  1  0
  1 23  1  0
  2 24  1  6
  6 25  1  0
  6 26  1  0
  7 27  1  0
  7 28  1  0
 10 29  1  0
 11 30  1  6
 14 31  1  0
 14 32  1  0
 15 33  1  0
 16 34  1  0
 17 35  1  0
 17 36  1  0
M  CHG  3   1   1   5  -1  20  -1
M  END
>  <filename_input>  (16) 
8D19_GSH_docked.sdf

>  <pdb_id>  (16) 
8D19_GSH

>  <pose_rank>  (16) 
15

>  <num_atoms_heavy>  (16) 
20

>  <num_torsions>  (16) 
9

>  <pose>  (16) 
[25.473463726959963, 31.08058542900458, 34.79866666670203, -3.586318838272518, -5.211256213038738, -0.928278568633114, -16.768254984893673, 5.5836936146107865, 1.4192999121788046, -0.8230431720276145, -0.23733759354079442, 14.380369242111195, 5.104893834073744, -10.790605359534137, 0.1695494203758149]

>  <energy>  (16) 
-86.6637148866263

>  <inter_energy>  (16) 
-85.5667417641481

>  <intra_energy>  (16) 
0.17639302597669954

>  <rmsd>  (16) 
5.45771

>  <sdf_rank>  (16) 
0

$$$$

     RDKit          3D

 36 35  0  0  0  0  0  0  0  0999 V2000
   24.5024   24.4494   33.7053 N   0  0  0  0  0  0  0  0  0  0  0  0
   23.9645   25.4596   34.6587 C   0  0  2  0  0  0  0  0  0  0  0  0
   22.5064   25.1207   34.9836 C   0  0  0  0  0  0  0  0  0  0  0  0
   21.9565   24.2476   34.3015 O   0  0  0  0  0  0  0  0  0  0  0  0
   21.9852   25.7249   35.9331 O   0  0  0  0  0  0  0  0  0  0  0  0
   24.0304   26.8635   34.0508 C   0  0  0  0  0  0  0  0  0  0  0  0
   25.1644   27.0393   33.0502 C   0  0  0  0  0  0  0  0  0  0  0  0
   24.8791   28.0906   31.9960 C   0  0  0  0  0  0  0  0  0  0  0  0
   25.7771   28.6917   31.4143 O   0  0  0  0  0  0  0  0  0  0  0  0
   23.5914   28.3458   31.7662 N   0  0  0  0  0  0  0  0  0  0  0  0
   23.1266   29.3339   30.8063 C   0  0  2  0  0  0  0  0  0  0  0  0
   22.4000   30.5247   31.4347 C   0  0  0  0  0  0  0  0  0  0  0  0
   21.2375   30.7553   31.1133 O   0  0  0  0  0  0  0  0  0  0  0  0
   22.2285   28.6963   29.7601 C   0  0  0  0  0  0  0  0  0  0  0  0
   21.7008   27.0149   30.1785 S   0  0  0  0  0  0  0  0  0  0  0  0
   23.0789   31.2624   32.3165 N   0  0  0  0  0  0  0  0  0  0  0  0
   22.4281   32.2846   33.1109 C   0  0  0  0  0  0  0  0  0  0  0  0
   23.3907   33.1127   33.9615 C   0  0  0  0  0  0  0  0  0  0  0  0
   24.6141   32.9760   33.7692 O   0  0  0  0  0  0  0  0  0  0  0  0
   22.8735   33.8940   34.7876 O   0  0  0  0  0  0  0  0  0  0  0  0
   24.9185   23.6679   34.2317 H   0  0  0  0  0  0  0  0  0  0  0  0
   23.7380   24.0956   33.1125 H   0  0  0  0  0  0  0  0  0  0  0  0
   25.2227   24.8861   33.1125 H   0  0  0  0  0  0  0  0  0  0  0  0
   24.5729   25.4403   35.5750 H   0  0  0  0  0  0  0  0  0  0  0  0
   23.0787   27.0658   33.5376 H   0  0  0  0  0  0  0  0  0  0  0  0
   24.2162   27.5656   34.8771 H   0  0  0  0  0  0  0  0  0  0  0  0
   26.0714   27.3329   33.5990 H   0  0  0  0  0  0  0  0  0  0  0  0
   25.2877   26.0796   32.5270 H   0  0  0  0  0  0  0  0  0  0  0  0
   22.8872   27.8141   32.2975 H   0  0  0  0  0  0  0  0  0  0  0  0
   24.0410   29.7272   30.3381 H   0  0  0  0  0  0  0  0  0  0  0  0
   21.3318   29.3228   29.6442 H   0  0  0  0  0  0  0  0  0  0  0  0
   22.8156   28.6270   28.8325 H   0  0  0  0  0  0  0  0  0  0  0  0
   21.6571   26.8756   31.5407 H   0  0  0  0  0  0  0  0  0  0  0  0
   24.0893   31.1011   32.4348 H   0  0  0  0  0  0  0  0  0  0  0  0
   21.8940   32.9644   32.4308 H   0  0  0  0  0  0  0  0  0  0  0  0
   21.7514   31.7665   33.8064 H   0  0  0  0  0  0  0  0  0  0  0  0
  2  1  1  0
  2  3  1  0
  2  6  1  0
  3  4  2  0
  3  5  1  0
  6  7  1  0
  7  8  1  0
  8  9  2  0
  8 10  1  0
 10 11  1  0
 11 12  1  0
 11 14  1  0
 12 13  2  0
 12 16  1  0
 14 15  1  0
 16 17  1  0
 17 18  1  0
 18 19  2  0
 18 20  1  0
  1 21  1  0
  1 22  1  0
  1 23  1  0
  2 24  1  1
  6 25  1  0
  6 26  1  0
  7 27  1  0
  7 28  1  0
 10 29  1  0
 11 30  1  6
 14 31  1  0
 14 32  1  0
 15 33  1  0
 16 34  1  0
 17 35  1  0
 17 36  1  0
M  CHG  3   1   1   5  -1  20  -1
M  END
>  <filename_input>  (17) 
8D19_GSH_docked.sdf

>  <pdb_id>  (17) 
8D19_GSH

>  <pose_rank>  (17) 
16

>  <num_atoms_heavy>  (17) 
20

>  <num_torsions>  (17) 
9

>  <pose>  (17) 
[24.879052582777156, 28.090555659678422, 31.9960345383922, -0.907808088667509, 2.965052824193686, 4.505119851992244, 3.3279850478726063, 4.142228327448121, 0.8336546114320392, -2.756696458465183, -0.6025653636286039, 1.1768074550461083, -1.3389416434442198, -0.17984298638589258, 1.3449133291914903]

>  <energy>  (17) 
-251.95747342889302

>  <inter_energy>  (17) 
-249.29996980572926

>  <intra_energy>  (17) 
0.2571811675403986

>  <rmsd>  (17) 
4.7695

>  <sdf_rank>  (17) 
0

$$$$

     RDKit          3D

 36 35  0  0  0  0  0  0  0  0999 V2000
   19.0882   30.7301   33.2709 N   0  0  0  0  0  0  0  0  0  0  0  0
   19.9637   31.8964   32.9671 C   0  0  2  0  0  0  0  0  0  0  0  0
   19.1924   33.1913   33.2411 C   0  0  0  0  0  0  0  0  0  0  0  0
   17.9889   33.0943   33.5095 O   0  0  0  0  0  0  0  0  0  0  0  0
   19.8376   34.2500   33.2063 O   0  0  0  0  0  0  0  0  0  0  0  0
   20.4023   31.8739   31.5001 C   0  0  0  0  0  0  0  0  0  0  0  0
   21.7565   32.5274   31.2612 C   0  0  0  0  0  0  0  0  0  0  0  0
   22.8485   31.5370   30.9081 C   0  0  0  0  0  0  0  0  0  0  0  0
   23.6129   31.7175   29.9650 O   0  0  0  0  0  0  0  0  0  0  0  0
   22.9033   30.4412   31.6646 N   0  0  0  0  0  0  0  0  0  0  0  0
   23.8695   29.3734   31.4640 C   0  0  2  0  0  0  0  0  0  0  0  0
   23.3200   27.9718   31.7361 C   0  0  0  0  0  0  0  0  0  0  0  0
   24.0975   27.0719   32.0422 O   0  0  0  0  0  0  0  0  0  0  0  0
   25.1109   29.5962   32.3106 C   0  0  0  0  0  0  0  0  0  0  0  0
   26.6009   29.9472   31.3424 S   0  0  0  0  0  0  0  0  0  0  0  0
   22.0007   27.7977   31.6267 N   0  0  0  0  0  0  0  0  0  0  0  0
   21.3600   26.5694   32.0516 C   0  0  0  0  0  0  0  0  0  0  0  0
   21.1069   25.5791   30.9153 C   0  0  0  0  0  0  0  0  0  0  0  0
   20.2254   25.8543   30.0789 O   0  0  0  0  0  0  0  0  0  0  0  0
   21.8269   24.5585   30.8947 O   0  0  0  0  0  0  0  0  0  0  0  0
   19.0053   30.6197   34.2916 H   0  0  0  0  0  0  0  0  0  0  0  0
   18.1544   30.8870   32.8655 H   0  0  0  0  0  0  0  0  0  0  0  0
   19.4995   29.8773   32.8655 H   0  0  0  0  0  0  0  0  0  0  0  0
   20.8575   31.8435   33.6060 H   0  0  0  0  0  0  0  0  0  0  0  0
   20.4580   30.8263   31.1694 H   0  0  0  0  0  0  0  0  0  0  0  0
   19.6591   32.4519   30.9312 H   0  0  0  0  0  0  0  0  0  0  0  0
   21.6561   33.2455   30.4340 H   0  0  0  0  0  0  0  0  0  0  0  0
   22.0522   33.0154   32.2016 H   0  0  0  0  0  0  0  0  0  0  0  0
   22.2244   30.3455   32.4332 H   0  0  0  0  0  0  0  0  0  0  0  0
   24.1224   29.4164   30.3943 H   0  0  0  0  0  0  0  0  0  0  0  0
   24.9249   30.4474   32.9821 H   0  0  0  0  0  0  0  0  0  0  0  0
   25.2974   28.6611   32.8590 H   0  0  0  0  0  0  0  0  0  0  0  0
   27.6487   30.1939   32.1899 H   0  0  0  0  0  0  0  0  0  0  0  0
   21.4248   28.5544   31.2310 H   0  0  0  0  0  0  0  0  0  0  0  0
   22.0044   26.0827   32.7984 H   0  0  0  0  0  0  0  0  0  0  0  0
   20.3766   26.8462   32.4595 H   0  0  0  0  0  0  0  0  0  0  0  0
  2  1  1  0
  2  3  1  0
  2  6  1  0
  3  4  2  0
  3  5  1  0
  6  7  1  0
  7  8  1  0
  8  9  2  0
  8 10  1  0
 10 11  1  0
 11 12  1  0
 11 14  1  0
 12 13  2  0
 12 16  1  0
 14 15  1  0
 16 17  1  0
 17 18  1  0
 18 19  2  0
 18 20  1  0
  1 21  1  0
  1 22  1  0
  1 23  1  0
  2 24  1  1
  6 25  1  0
  6 26  1  0
  7 27  1  0
  7 28  1  0
 10 29  1  0
 11 30  1  6
 14 31  1  0
 14 32  1  0
 15 33  1  0
 16 34  1  0
 17 35  1  0
 17 36  1  0
M  CHG  3   1   1   5  -1  20  -1
M  END
>  <filename_input>  (18) 
8D19_GSH_docked.sdf

>  <pdb_id>  (18) 
8D19_GSH

>  <pose_rank>  (18) 
17

>  <num_atoms_heavy>  (18) 
20

>  <num_torsions>  (18) 
9

>  <pose>  (18) 
[22.84846724383756, 31.536996585693572, 30.908110021250472, 1.8514565660773947, 2.226076285451449, -2.7619138933651253, -3.337682321527643, -2.888800490631573, -1.2974513307147904, 3.575538657001024, -7.402894993585801, -5.718948489921762, 0.00819641979642924, -1.58673236785343, -0.8429284548363616]

>  <energy>  (18) 
-326.82756802751885

>  <inter_energy>  (18) 
-320.9154107434183

>  <intra_energy>  (18) 
5.443117884155092

>  <rmsd>  (18) 
7.48759

>  <sdf_rank>  (18) 
0

$$$$

     RDKit          3D

 36 35  0  0  0  0  0  0  0  0999 V2000
   27.8980   29.9516   31.0816 N   0  0  0  0  0  0  0  0  0  0  0  0
   27.8224   28.5206   31.4881 C   0  0  2  0  0  0  0  0  0  0  0  0
   29.2250   27.9067   31.4369 C   0  0  0  0  0  0  0  0  0  0  0  0
   29.6804   27.4327   32.4847 O   0  0  0  0  0  0  0  0  0  0  0  0
   29.7969   27.8982   30.3364 O   0  0  0  0  0  0  0  0  0  0  0  0
   26.8984   27.7410   30.5482 C   0  0  0  0  0  0  0  0  0  0  0  0
   26.4464   26.4018   31.1141 C   0  0  0  0  0  0  0  0  0  0  0  0
   24.9478   26.3122   31.3238 C   0  0  0  0  0  0  0  0  0  0  0  0
   24.2154   25.7066   30.5472 O   0  0  0  0  0  0  0  0  0  0  0  0
   24.4715   26.9622   32.3853 N   0  0  0  0  0  0  0  0  0  0  0  0
   23.0611   27.0051   32.7354 C   0  0  2  0  0  0  0  0  0  0  0  0
   22.3797   28.3404   32.4296 C   0  0  0  0  0  0  0  0  0  0  0  0
   21.6492   28.8485   33.2759 O   0  0  0  0  0  0  0  0  0  0  0  0
   22.8532   26.6625   34.2007 C   0  0  0  0  0  0  0  0  0  0  0  0
   24.1401   27.3188   35.2932 S   0  0  0  0  0  0  0  0  0  0  0  0
   22.6208   28.8940   31.2388 N   0  0  0  0  0  0  0  0  0  0  0  0
   22.1876   30.2412   30.9269 C   0  0  0  0  0  0  0  0  0  0  0  0
   23.2213   31.0596   30.1540 C   0  0  0  0  0  0  0  0  0  0  0  0
   24.2190   31.4815   30.7696 O   0  0  0  0  0  0  0  0  0  0  0  0
   22.9986   31.2326   28.9371 O   0  0  0  0  0  0  0  0  0  0  0  0
   27.9293   30.5461   31.9221 H   0  0  0  0  0  0  0  0  0  0  0  0
   28.7482   30.1049   30.5207 H   0  0  0  0  0  0  0  0  0  0  0  0
   27.0686   30.1935   30.5207 H   0  0  0  0  0  0  0  0  0  0  0  0
   27.4194   28.4640   32.5100 H   0  0  0  0  0  0  0  0  0  0  0  0
   26.0067   28.3538   30.3493 H   0  0  0  0  0  0  0  0  0  0  0  0
   27.4713   27.5290   29.6334 H   0  0  0  0  0  0  0  0  0  0  0  0
   26.7489   25.6080   30.4153 H   0  0  0  0  0  0  0  0  0  0  0  0
   26.9198   26.2896   32.1007 H   0  0  0  0  0  0  0  0  0  0  0  0
   25.1390   27.4614   32.9905 H   0  0  0  0  0  0  0  0  0  0  0  0
   22.5859   26.2485   32.0938 H   0  0  0  0  0  0  0  0  0  0  0  0
   21.8842   27.0743   34.5193 H   0  0  0  0  0  0  0  0  0  0  0  0
   22.8913   25.5662   34.2824 H   0  0  0  0  0  0  0  0  0  0  0  0
   23.7706   27.1303   36.5989 H   0  0  0  0  0  0  0  0  0  0  0  0
   23.1268   28.3507   30.5249 H   0  0  0  0  0  0  0  0  0  0  0  0
   21.2715   30.1791   30.3213 H   0  0  0  0  0  0  0  0  0  0  0  0
   22.0251   30.7549   31.8859 H   0  0  0  0  0  0  0  0  0  0  0  0
  2  1  1  0
  2  3  1  0
  2  6  1  0
  3  4  2  0
  3  5  1  0
  6  7  1  0
  7  8  1  0
  8  9  2  0
  8 10  1  0
 10 11  1  0
 11 12  1  0
 11 14  1  0
 12 13  2  0
 12 16  1  0
 14 15  1  0
 16 17  1  0
 17 18  1  0
 18 19  2  0
 18 20  1  0
  1 21  1  0
  1 22  1  0
  1 23  1  0
  2 24  1  1
  6 25  1  0
  6 26  1  0
  7 27  1  0
  7 28  1  0
 10 29  1  0
 11 30  1  6
 14 31  1  0
 14 32  1  0
 15 33  1  0
 16 34  1  0
 17 35  1  0
 17 36  1  0
M  CHG  3   1   1   5  -1  20  -1
M  END
>  <filename_input>  (19) 
8D19_GSH_docked.sdf

>  <pdb_id>  (19) 
8D19_GSH

>  <pose_rank>  (19) 
18

>  <num_atoms_heavy>  (19) 
20

>  <num_torsions>  (19) 
9

>  <pose>  (19) 
[24.94775671032909, 26.312229826677004, 31.323806326488977, 4.168695678468674, -2.2467018902079334, 0.07008459406597617, -3.8681321546261267, 3.5273258524766584, 11.057504508180756, -0.4675575419083945, 5.836564100037314, 0.9357596273296609, 4.121253692627505, -1.6391604205207262, 1.7839704978431161]

>  <energy>  (19) 
-191.84413840645777

>  <inter_energy>  (19) 
-202.40061868474058

>  <intra_energy>  (19) 
2.155975023169489

>  <rmsd>  (19) 
3.69513

>  <sdf_rank>  (19) 
0

$$$$

     RDKit          3D

 36 35  0  0  0  0  0  0  0  0999 V2000
   22.1918   24.3417   35.0233 N   0  0  0  0  0  0  0  0  0  0  0  0
   23.5245   24.3408   34.3579 C   0  0  2  0  0  0  0  0  0  0  0  0
   24.4112   23.2725   35.0054 C   0  0  0  0  0  0  0  0  0  0  0  0
   24.7061   22.2837   34.3233 O   0  0  0  0  0  0  0  0  0  0  0  0
   24.8004   23.4886   36.1630 O   0  0  0  0  0  0  0  0  0  0  0  0
   24.1996   25.7079   34.5008 C   0  0  0  0  0  0  0  0  0  0  0  0
   25.0903   26.0715   33.3208 C   0  0  0  0  0  0  0  0  0  0  0  0
   24.3886   26.9152   32.2750 C   0  0  0  0  0  0  0  0  0  0  0  0
   24.9605   27.3080   31.2626 O   0  0  0  0  0  0  0  0  0  0  0  0
   23.1221   27.2330   32.5415 N   0  0  0  0  0  0  0  0  0  0  0  0
   22.2970   28.0496   31.6661 C   0  0  2  0  0  0  0  0  0  0  0  0
   21.9265   29.4150   32.2483 C   0  0  0  0  0  0  0  0  0  0  0  0
   22.7948   30.2767   32.3557 O   0  0  0  0  0  0  0  0  0  0  0  0
   21.0279   27.3138   31.2717 C   0  0  0  0  0  0  0  0  0  0  0  0
   21.0689   25.5404   31.6379 S   0  0  0  0  0  0  0  0  0  0  0  0
   20.6560   29.6024   32.6134 N   0  0  0  0  0  0  0  0  0  0  0  0
   20.1598   30.9111   32.9889 C   0  0  0  0  0  0  0  0  0  0  0  0
   19.5306   30.9576   34.3809 C   0  0  0  0  0  0  0  0  0  0  0  0
   19.2268   29.8796   34.9268 O   0  0  0  0  0  0  0  0  0  0  0  0
   19.3820   32.0895   34.8880 O   0  0  0  0  0  0  0  0  0  0  0  0
   22.3184   24.3416   36.0455 H   0  0  0  0  0  0  0  0  0  0  0  0
   21.6683   25.1831   34.7423 H   0  0  0  0  0  0  0  0  0  0  0  0
   21.6672   23.5011   34.7423 H   0  0  0  0  0  0  0  0  0  0  0  0
   23.3858   24.1231   33.2886 H   0  0  0  0  0  0  0  0  0  0  0  0
   23.4166   26.4747   34.5954 H   0  0  0  0  0  0  0  0  0  0  0  0
   24.8448   25.6588   35.3903 H   0  0  0  0  0  0  0  0  0  0  0  0
   25.9571   26.6337   33.6984 H   0  0  0  0  0  0  0  0  0  0  0  0
   25.3854   25.1301   32.8343 H   0  0  0  0  0  0  0  0  0  0  0  0
   22.7052   26.8810   33.4150 H   0  0  0  0  0  0  0  0  0  0  0  0
   22.9219   28.2376   30.7806 H   0  0  0  0  0  0  0  0  0  0  0  0
   20.1837   27.7612   31.8168 H   0  0  0  0  0  0  0  0  0  0  0  0
   20.9246   27.4140   30.1812 H   0  0  0  0  0  0  0  0  0  0  0  0
   21.0732   25.3543   32.9952 H   0  0  0  0  0  0  0  0  0  0  0  0
   20.0132   28.7977   32.6286 H   0  0  0  0  0  0  0  0  0  0  0  0
   21.0002   31.6204   32.9646 H   0  0  0  0  0  0  0  0  0  0  0  0
   19.3678   31.1708   32.2711 H   0  0  0  0  0  0  0  0  0  0  0  0
  2  1  1  0
  2  3  1  0
  2  6  1  0
  3  4  2  0
  3  5  1  0
  6  7  1  0
  7  8  1  0
  8  9  2  0
  8 10  1  0
 10 11  1  0
 11 12  1  0
 11 14  1  0
 12 13  2  0
 12 16  1  0
 14 15  1  0
 16 17  1  0
 17 18  1  0
 18 19  2  0
 18 20  1  0
  1 21  1  0
  1 22  1  0
  1 23  1  0
  2 24  1  6
  6 25  1  0
  6 26  1  0
  7 27  1  0
  7 28  1  0
 10 29  1  0
 11 30  1  6
 14 31  1  0
 14 32  1  0
 15 33  1  0
 16 34  1  0
 17 35  1  0
 17 36  1  0
M  CHG  3   1   1   5  -1  20  -1
M  END
>  <filename_input>  (20) 
8D19_GSH_docked.sdf

>  <pdb_id>  (20) 
8D19_GSH

>  <pose_rank>  (20) 
19

>  <num_atoms_heavy>  (20) 
20

>  <num_torsions>  (20) 
9

>  <pose>  (20) 
[24.38864200077856, 26.915217637843917, 32.274976760044254, 1.7236466976690734, 0.7879271924905765, 5.237750890722135, -8.805224538099097, -3.1454132590959634, -1.2484083758989013, -0.6280509526726468, 5.706479558902854, -1.7665398151954494, -0.45644651840383854, -0.6215540429716933, 0.8836602778600972]

>  <energy>  (20) 
-251.47520688811784

>  <inter_energy>  (20) 
-249.6671584217974

>  <intra_energy>  (20) 
4.032023558876015

>  <rmsd>  (20) 
5.52805

>  <sdf_rank>  (20) 
0

$$$$

     RDKit          3D

 36 35  0  0  0  0  0  0  0  0999 V2000
   25.3748   27.0342   30.8558 N   0  0  0  0  0  0  0  0  0  0  0  0
   24.2428   26.7186   31.7712 C   0  0  2  0  0  0  0  0  0  0  0  0
   24.3789   25.2742   32.2629 C   0  0  0  0  0  0  0  0  0  0  0  0
   24.0967   24.3702   31.4671 O   0  0  0  0  0  0  0  0  0  0  0  0
   24.7951   25.1091   33.4194 O   0  0  0  0  0  0  0  0  0  0  0  0
   22.9030   26.8786   31.0471 C   0  0  0  0  0  0  0  0  0  0  0  0
   21.7448   27.2076   31.9789 C   0  0  0  0  0  0  0  0  0  0  0  0
   21.3285   28.6644   31.9300 C   0  0  0  0  0  0  0  0  0  0  0  0
   21.4550   29.3454   30.9169 O   0  0  0  0  0  0  0  0  0  0  0  0
   20.8492   29.1683   33.0669 N   0  0  0  0  0  0  0  0  0  0  0  0
   20.4184   30.5489   33.2157 C   0  0  2  0  0  0  0  0  0  0  0  0
   21.5525   31.5720   33.1296 C   0  0  0  0  0  0  0  0  0  0  0  0
   22.6748   31.2572   33.5163 O   0  0  0  0  0  0  0  0  0  0  0  0
   19.6652   30.7467   34.5200 C   0  0  0  0  0  0  0  0  0  0  0  0
   20.0585   29.5107   35.7842 S   0  0  0  0  0  0  0  0  0  0  0  0
   21.2584   32.7739   32.6280 N   0  0  0  0  0  0  0  0  0  0  0  0
   22.2923   33.7417   32.3214 C   0  0  0  0  0  0  0  0  0  0  0  0
   22.6901   34.6183   33.5086 C   0  0  0  0  0  0  0  0  0  0  0  0
   23.8952   34.8974   33.6576 O   0  0  0  0  0  0  0  0  0  0  0  0
   21.7618   35.0148   34.2445 O   0  0  0  0  0  0  0  0  0  0  0  0
   26.2106   27.2671   31.4109 H   0  0  0  0  0  0  0  0  0  0  0  0
   25.5741   26.2167   30.2617 H   0  0  0  0  0  0  0  0  0  0  0  0
   25.1225   27.8369   30.2617 H   0  0  0  0  0  0  0  0  0  0  0  0
   24.2719   27.4147   32.6225 H   0  0  0  0  0  0  0  0  0  0  0  0
   22.9996   27.6907   30.3114 H   0  0  0  0  0  0  0  0  0  0  0  0
   22.6734   25.9124   30.5741 H   0  0  0  0  0  0  0  0  0  0  0  0
   20.8814   26.5884   31.6941 H   0  0  0  0  0  0  0  0  0  0  0  0
   22.0842   27.0009   33.0046 H   0  0  0  0  0  0  0  0  0  0  0  0
   20.7803   28.5458   33.8846 H   0  0  0  0  0  0  0  0  0  0  0  0
   19.7546   30.7333   32.3581 H   0  0  0  0  0  0  0  0  0  0  0  0
   19.9150   31.7414   34.9176 H   0  0  0  0  0  0  0  0  0  0  0  0
   18.5944   30.6422   34.2912 H   0  0  0  0  0  0  0  0  0  0  0  0
   19.8843   30.0582   37.0279 H   0  0  0  0  0  0  0  0  0  0  0  0
   20.2730   33.0190   32.4548 H   0  0  0  0  0  0  0  0  0  0  0  0
   23.1847   33.1982   31.9775 H   0  0  0  0  0  0  0  0  0  0  0  0
   21.8842   34.4126   31.5511 H   0  0  0  0  0  0  0  0  0  0  0  0
  2  1  1  0
  2  3  1  0
  2  6  1  0
  3  4  2  0
  3  5  1  0
  6  7  1  0
  7  8  1  0
  8  9  2  0
  8 10  1  0
 10 11  1  0
 11 12  1  0
 11 14  1  0
 12 13  2  0
 12 16  1  0
 14 15  1  0
 16 17  1  0
 17 18  1  0
 18 19  2  0
 18 20  1  0
  1 21  1  0
  1 22  1  0
  1 23  1  0
  2 24  1  1
  6 25  1  0
  6 26  1  0
  7 27  1  0
  7 28  1  0
 10 29  1  0
 11 30  1  6
 14 31  1  0
 14 32  1  0
 15 33  1  0
 16 34  1  0
 17 35  1  0
 17 36  1  0
M  CHG  3   1   1   5  -1  20  -1
M  END
>  <filename_input>  (21) 
8D19_GSH_docked.sdf

>  <pdb_id>  (21) 
8D19_GSH

>  <pose_rank>  (21) 
20

>  <num_atoms_heavy>  (21) 
20

>  <num_torsions>  (21) 
9

>  <pose>  (21) 
[21.32848157249631, 28.664395454528684, 31.930030526032194, 0.11074252568376819, -2.8739339051455914, 3.980461565052399, 1.1503358845845428, 3.291262605891707, 4.94164181788328, 2.4023198109367003, -6.075919646771829, 2.73656386089563, 6.473826050465213, -4.176012734026387, -4.7488522948335]

>  <energy>  (21) 
-275.1420293867417

>  <inter_energy>  (21) 
-276.4125301420217

>  <intra_energy>  (21) 
10.322089655804966

>  <rmsd>  (21) 
4.29383

>  <sdf_rank>  (21) 
0

$$$$

     RDKit          3D

 36 35  0  0  0  0  0  0  0  0999 V2000
   23.7402   30.9303   37.7272 N   0  0  0  0  0  0  0  0  0  0  0  0
   24.3168   31.1371   36.3693 C   0  0  2  0  0  0  0  0  0  0  0  0
   23.8213   32.4740   35.8090 C   0  0  0  0  0  0  0  0  0  0  0  0
   24.4728   33.4878   36.0880 O   0  0  0  0  0  0  0  0  0  0  0  0
   22.8151   32.4435   35.0845 O   0  0  0  0  0  0  0  0  0  0  0  0
   23.8920   30.0086   35.4255 C   0  0  0  0  0  0  0  0  0  0  0  0
   25.0644   29.2368   34.8357 C   0  0  0  0  0  0  0  0  0  0  0  0
   24.6401   28.0753   33.9589 C   0  0  0  0  0  0  0  0  0  0  0  0
   25.0076   27.9700   32.7927 O   0  0  0  0  0  0  0  0  0  0  0  0
   23.8144   27.1947   34.5236 N   0  0  0  0  0  0  0  0  0  0  0  0
   23.2872   26.0293   33.8325 C   0  0  2  0  0  0  0  0  0  0  0  0
   24.2782   24.8698   33.7136 C   0  0  0  0  0  0  0  0  0  0  0  0
   24.0613   23.9769   32.8988 O   0  0  0  0  0  0  0  0  0  0  0  0
   22.7827   26.3991   32.4482 C   0  0  0  0  0  0  0  0  0  0  0  0
   21.0390   25.9926   32.1745 S   0  0  0  0  0  0  0  0  0  0  0  0
   25.3465   24.8906   34.5142 N   0  0  0  0  0  0  0  0  0  0  0  0
   26.4384   23.9529   34.3466 C   0  0  0  0  0  0  0  0  0  0  0  0
   27.5772   24.1449   35.3476 C   0  0  0  0  0  0  0  0  0  0  0  0
   28.5592   23.3813   35.2768 O   0  0  0  0  0  0  0  0  0  0  0  0
   27.4491   25.0809   36.1649 O   0  0  0  0  0  0  0  0  0  0  0  0
   24.4406   31.1816   38.4395 H   0  0  0  0  0  0  0  0  0  0  0  0
   22.9068   31.5248   37.8405 H   0  0  0  0  0  0  0  0  0  0  0  0
   23.4747   29.9416   37.8405 H   0  0  0  0  0  0  0  0  0  0  0  0
   25.4140   31.1407   36.4478 H   0  0  0  0  0  0  0  0  0  0  0  0
   23.2590   29.3052   35.9864 H   0  0  0  0  0  0  0  0  0  0  0  0
   23.3555   30.4739   34.5855 H   0  0  0  0  0  0  0  0  0  0  0  0
   25.6681   29.9287   34.2300 H   0  0  0  0  0  0  0  0  0  0  0  0
   25.6337   28.8169   35.6781 H   0  0  0  0  0  0  0  0  0  0  0  0
   23.5345   27.3481   35.5029 H   0  0  0  0  0  0  0  0  0  0  0  0
   22.4564   25.6775   34.4618 H   0  0  0  0  0  0  0  0  0  0  0  0
   22.9124   27.4826   32.3096 H   0  0  0  0  0  0  0  0  0  0  0  0
   23.3668   25.8100   31.7258 H   0  0  0  0  0  0  0  0  0  0  0  0
   20.4093   25.8458   33.3823 H   0  0  0  0  0  0  0  0  0  0  0  0
   25.3957   25.5899   35.2688 H   0  0  0  0  0  0  0  0  0  0  0  0
   26.0412   22.9339   34.4647 H   0  0  0  0  0  0  0  0  0  0  0  0
   26.8595   24.1279   33.3456 H   0  0  0  0  0  0  0  0  0  0  0  0
  2  1  1  0
  2  3  1  0
  2  6  1  0
  3  4  2  0
  3  5  1  0
  6  7  1  0
  7  8  1  0
  8  9  2  0
  8 10  1  0
 10 11  1  0
 11 12  1  0
 11 14  1  0
 12 13  2  0
 12 16  1  0
 14 15  1  0
 16 17  1  0
 17 18  1  0
 18 19  2  0
 18 20  1  0
  1 21  1  0
  1 22  1  0
  1 23  1  0
  2 24  1  1
  6 25  1  0
  6 26  1  0
  7 27  1  0
  7 28  1  0
 10 29  1  0
 11 30  1  1
 14 31  1  0
 14 32  1  0
 15 33  1  0
 16 34  1  0
 17 35  1  0
 17 36  1  0
M  CHG  3   1   1   5  -1  20  -1
M  END
>  <filename_input>  (22) 
8D19_GSH_docked.sdf

>  <pdb_id>  (22) 
8D19_GSH

>  <pose_rank>  (22) 
21

>  <num_atoms_heavy>  (22) 
20

>  <num_torsions>  (22) 
9

>  <pose>  (22) 
[24.640051481185598, 28.075314234879464, 33.95892238827288, 3.682479605247578, 2.0499795149677964, -2.746359434534303, -3.494011414697413, 4.572834678376456, -0.7722569776279347, -1.0527930256741989, 9.031209466344134, 0.429719847171645, 4.833765870615406, 2.793945628843992, 5.277992773125745]

>  <energy>  (22) 
-122.53090890121341

>  <inter_energy>  (22) 
-150.00186177896109

>  <intra_energy>  (22) 
28.935394830495042

>  <rmsd>  (22) 
7.99239

>  <sdf_rank>  (22) 
0

$$$$

     RDKit          3D

 36 35  0  0  0  0  0  0  0  0999 V2000
   25.4451   23.5561   34.7501 N   0  0  0  0  0  0  0  0  0  0  0  0
   24.6141   24.7919   34.7165 C   0  0  2  0  0  0  0  0  0  0  0  0
   23.2204   24.4780   35.2695 C   0  0  0  0  0  0  0  0  0  0  0  0
   22.5777   25.4121   35.7640 O   0  0  0  0  0  0  0  0  0  0  0  0
   22.8176   23.3107   35.1540 O   0  0  0  0  0  0  0  0  0  0  0  0
   24.4799   25.3126   33.2827 C   0  0  0  0  0  0  0  0  0  0  0  0
   25.5303   26.3510   32.9132 C   0  0  0  0  0  0  0  0  0  0  0  0
   25.0631   27.3284   31.8528 C   0  0  0  0  0  0  0  0  0  0  0  0
   25.5420   27.3433   30.7229 O   0  0  0  0  0  0  0  0  0  0  0  0
   24.1244   28.1934   32.2356 N   0  0  0  0  0  0  0  0  0  0  0  0
   23.5688   29.2151   31.3631 C   0  0  2  0  0  0  0  0  0  0  0  0
   23.1280   30.4874   32.0893 C   0  0  0  0  0  0  0  0  0  0  0  0
   23.4506   31.5808   31.6327 O   0  0  0  0  0  0  0  0  0  0  0  0
   22.4011   28.6687   30.5595 C   0  0  0  0  0  0  0  0  0  0  0  0
   21.1274   29.9029   30.1919 S   0  0  0  0  0  0  0  0  0  0  0  0
   22.4012   30.3401   33.1996 N   0  0  0  0  0  0  0  0  0  0  0  0
   21.7707   31.4716   33.8491 C   0  0  0  0  0  0  0  0  0  0  0  0
   22.2178   31.6821   35.2954 C   0  0  0  0  0  0  0  0  0  0  0  0
   22.0757   32.8135   35.7975 O   0  0  0  0  0  0  0  0  0  0  0  0
   22.6825   30.6843   35.8860 O   0  0  0  0  0  0  0  0  0  0  0  0
   25.6244   23.2894   35.7287 H   0  0  0  0  0  0  0  0  0  0  0  0
   24.9449   22.7928   34.2725 H   0  0  0  0  0  0  0  0  0  0  0  0
   26.3407   23.7314   34.2725 H   0  0  0  0  0  0  0  0  0  0  0  0
   25.1022   25.5631   35.3304 H   0  0  0  0  0  0  0  0  0  0  0  0
   24.5742   24.4612   32.5927 H   0  0  0  0  0  0  0  0  0  0  0  0
   23.4986   25.8039   33.2073 H   0  0  0  0  0  0  0  0  0  0  0  0
   25.7937   26.9180   33.8182 H   0  0  0  0  0  0  0  0  0  0  0  0
   26.3919   25.8080   32.4975 H   0  0  0  0  0  0  0  0  0  0  0  0
   23.7734   28.1351   33.2022 H   0  0  0  0  0  0  0  0  0  0  0  0
   24.3952   29.4977   30.6943 H   0  0  0  0  0  0  0  0  0  0  0  0
   22.7884   28.2756   29.6080 H   0  0  0  0  0  0  0  0  0  0  0  0
   21.9255   27.8898   31.1736 H   0  0  0  0  0  0  0  0  0  0  0  0
   20.6180   30.3965   31.3639 H   0  0  0  0  0  0  0  0  0  0  0  0
   22.2859   29.3998   33.6040 H   0  0  0  0  0  0  0  0  0  0  0  0
   22.0122   32.3789   33.2761 H   0  0  0  0  0  0  0  0  0  0  0  0
   20.6907   31.2643   33.8753 H   0  0  0  0  0  0  0  0  0  0  0  0
  2  1  1  0
  2  3  1  0
  2  6  1  0
  3  4  2  0
  3  5  1  0
  6  7  1  0
  7  8  1  0
  8  9  2  0
  8 10  1  0
 10 11  1  0
 11 12  1  0
 11 14  1  0
 12 13  2  0
 12 16  1  0
 14 15  1  0
 16 17  1  0
 17 18  1  0
 18 19  2  0
 18 20  1  0
  1 21  1  0
  1 22  1  0
  1 23  1  0
  2 24  1  1
  6 25  1  0
  6 26  1  0
  7 27  1  0
  7 28  1  0
 10 29  1  0
 11 30  1  6
 14 31  1  0
 14 32  1  0
 15 33  1  0
 16 34  1  0
 17 35  1  0
 17 36  1  0
M  CHG  3   1   1   5  -1  20  -1
M  END
>  <filename_input>  (23) 
8D19_GSH_docked.sdf

>  <pdb_id>  (23) 
8D19_GSH

>  <pose_rank>  (23) 
22

>  <num_atoms_heavy>  (23) 
20

>  <num_torsions>  (23) 
9

>  <pose>  (23) 
[25.06306682770603, 27.328350383221697, 31.852756869109882, -0.4267967752528026, 0.0739324575813467, -1.0901167032767085, -1.3226897155584634, -1.1688564607593732, 5.996038310611798, 0.11933810687758649, -7.49734727485907, -0.674094555931956, -0.4067464859985248, 2.4129278845098523, -2.5701725286372605]

>  <energy>  (23) 
-189.31675475198222

>  <inter_energy>  (23) 
-205.0094174881857

>  <intra_energy>  (23) 
15.960955383286194

>  <rmsd>  (23) 
5.22231

>  <sdf_rank>  (23) 
0

$$$$

     RDKit          3D

 36 35  0  0  0  0  0  0  0  0999 V2000
   17.2393   32.6714   34.8804 N   0  0  0  0  0  0  0  0  0  0  0  0
   18.1180   33.2033   35.9593 C   0  0  2  0  0  0  0  0  0  0  0  0
   18.2395   34.7228   35.8080 C   0  0  0  0  0  0  0  0  0  0  0  0
   17.4838   35.2797   35.0025 O   0  0  0  0  0  0  0  0  0  0  0  0
   19.0686   35.2969   36.5299 O   0  0  0  0  0  0  0  0  0  0  0  0
   19.5129   32.5772   35.8765 C   0  0  0  0  0  0  0  0  0  0  0  0
   20.0726   32.5264   34.4616 C   0  0  0  0  0  0  0  0  0  0  0  0
   20.8894   31.2803   34.1820 C   0  0  0  0  0  0  0  0  0  0  0  0
   20.6995   30.2273   34.7833 O   0  0  0  0  0  0  0  0  0  0  0  0
   21.8498   31.4103   33.2673 N   0  0  0  0  0  0  0  0  0  0  0  0
   22.7446   30.3310   32.8822 C   0  0  2  0  0  0  0  0  0  0  0  0
   22.2898   29.5501   31.6478 C   0  0  0  0  0  0  0  0  0  0  0  0
   22.6707   29.9094   30.5370 O   0  0  0  0  0  0  0  0  0  0  0  0
   22.9587   29.3641   34.0341 C   0  0  0  0  0  0  0  0  0  0  0  0
   24.6066   28.6127   34.0592 S   0  0  0  0  0  0  0  0  0  0  0  0
   21.4903   28.4993   31.8463 N   0  0  0  0  0  0  0  0  0  0  0  0
   21.1643   27.5810   30.7738 C   0  0  0  0  0  0  0  0  0  0  0  0
   21.2844   26.1080   31.1635 C   0  0  0  0  0  0  0  0  0  0  0  0
   20.6510   25.7081   32.1591 O   0  0  0  0  0  0  0  0  0  0  0  0
   22.0042   25.3950   30.4328 O   0  0  0  0  0  0  0  0  0  0  0  0
   16.4351   32.1846   35.3013 H   0  0  0  0  0  0  0  0  0  0  0  0
   16.9021   33.4504   34.2970 H   0  0  0  0  0  0  0  0  0  0  0  0
   17.7732   32.0115   34.2970 H   0  0  0  0  0  0  0  0  0  0  0  0
   17.6731   32.9523   36.9336 H   0  0  0  0  0  0  0  0  0  0  0  0
   20.1981   33.1694   36.5009 H   0  0  0  0  0  0  0  0  0  0  0  0
   19.4226   31.5382   36.2264 H   0  0  0  0  0  0  0  0  0  0  0  0
   19.2321   32.5587   33.7527 H   0  0  0  0  0  0  0  0  0  0  0  0
   20.7460   33.3886   34.3474 H   0  0  0  0  0  0  0  0  0  0  0  0
   21.9643   32.3251   32.8081 H   0  0  0  0  0  0  0  0  0  0  0  0
   23.6902   30.8268   32.6174 H   0  0  0  0  0  0  0  0  0  0  0  0
   22.8118   29.9102   34.9775 H   0  0  0  0  0  0  0  0  0  0  0  0
   22.2349   28.5459   33.9049 H   0  0  0  0  0  0  0  0  0  0  0  0
   25.0057   28.4307   35.3571 H   0  0  0  0  0  0  0  0  0  0  0  0
   21.0959   28.3376   32.7839 H   0  0  0  0  0  0  0  0  0  0  0  0
   20.1286   27.7722   30.4566 H   0  0  0  0  0  0  0  0  0  0  0  0
   21.8918   27.7590   29.9682 H   0  0  0  0  0  0  0  0  0  0  0  0
  2  1  1  0
  2  3  1  0
  2  6  1  0
  3  4  2  0
  3  5  1  0
  6  7  1  0
  7  8  1  0
  8  9  2  0
  8 10  1  0
 10 11  1  0
 11 12  1  0
 11 14  1  0
 12 13  2  0
 12 16  1  0
 14 15  1  0
 16 17  1  0
 17 18  1  0
 18 19  2  0
 18 20  1  0
  1 21  1  0
  1 22  1  0
  1 23  1  0
  2 24  1  1
  6 25  1  0
  6 26  1  0
  7 27  1  0
  7 28  1  0
 10 29  1  0
 11 30  1  6
 14 31  1  0
 14 32  1  0
 15 33  1  0
 16 34  1  0
 17 35  1  0
 17 36  1  0
M  CHG  3   1   1   5  -1  20  -1
M  END
>  <filename_input>  (24) 
8D19_GSH_docked.sdf

>  <pdb_id>  (24) 
8D19_GSH

>  <pose_rank>  (24) 
23

>  <num_atoms_heavy>  (24) 
20

>  <num_torsions>  (24) 
9

>  <pose>  (24) 
[20.889363007112298, 31.280254464721594, 34.18203667954424, -0.845434230531388, -1.8476973734422022, -2.44079235429016, 1.0964971545926696, 5.25806600791946, 2.119734313973404, 3.8879870061450847, 3.0433828244626633, -1.4172332238376313, 4.036341908102718, 0.6078183330299334, -1.4434546013846283]

>  <energy>  (24) 
-224.83811560285716

>  <inter_energy>  (24) 
-257.75454401111693

>  <intra_energy>  (24) 
34.25049639323771

>  <rmsd>  (24) 
8.56667

>  <sdf_rank>  (24) 
0

$$$$

     RDKit          3D

 36 35  0  0  0  0  0  0  0  0999 V2000
   26.2730   27.3840   34.5659 N   0  0  0  0  0  0  0  0  0  0  0  0
   26.0210   26.7129   33.2601 C   0  0  2  0  0  0  0  0  0  0  0  0
   26.5728   25.2848   33.3118 C   0  0  0  0  0  0  0  0  0  0  0  0
   25.7568   24.3593   33.3994 O   0  0  0  0  0  0  0  0  0  0  0  0
   27.8031   25.1524   33.2295 O   0  0  0  0  0  0  0  0  0  0  0  0
   26.7051   27.4748   32.1214 C   0  0  0  0  0  0  0  0  0  0  0  0
   26.4165   28.9696   32.1317 C   0  0  0  0  0  0  0  0  0  0  0  0
   25.1897   29.3511   31.3271 C   0  0  0  0  0  0  0  0  0  0  0  0
   25.2336   30.1821   30.4250 O   0  0  0  0  0  0  0  0  0  0  0  0
   24.0536   28.7532   31.6847 N   0  0  0  0  0  0  0  0  0  0  0  0
   22.7746   29.0073   31.0417 C   0  0  2  0  0  0  0  0  0  0  0  0
   22.1555   30.3619   31.3915 C   0  0  0  0  0  0  0  0  0  0  0  0
   22.1785   31.2645   30.5591 O   0  0  0  0  0  0  0  0  0  0  0  0
   21.7776   27.9058   31.3585 C   0  0  0  0  0  0  0  0  0  0  0  0
   22.5276   26.4349   32.1032 S   0  0  0  0  0  0  0  0  0  0  0  0
   21.6114   30.4936   32.6036 N   0  0  0  0  0  0  0  0  0  0  0  0
   20.8300   31.6603   32.9615 C   0  0  0  0  0  0  0  0  0  0  0  0
   19.6403   31.3524   33.8702 C   0  0  0  0  0  0  0  0  0  0  0  0
   18.8577   32.2802   34.1512 O   0  0  0  0  0  0  0  0  0  0  0  0
   19.5248   30.1699   34.2559 O   0  0  0  0  0  0  0  0  0  0  0  0
   26.0318   26.7417   35.3342 H   0  0  0  0  0  0  0  0  0  0  0  0
   27.2681   27.6414   34.6332 H   0  0  0  0  0  0  0  0  0  0  0  0
   25.6935   28.2328   34.6332 H   0  0  0  0  0  0  0  0  0  0  0  0
   24.9369   26.6955   33.0749 H   0  0  0  0  0  0  0  0  0  0  0  0
   27.7919   27.3293   32.2087 H   0  0  0  0  0  0  0  0  0  0  0  0
   26.3052   27.0744   31.1781 H   0  0  0  0  0  0  0  0  0  0  0  0
   26.2633   29.2881   33.1734 H   0  0  0  0  0  0  0  0  0  0  0  0
   27.2786   29.4702   31.6666 H   0  0  0  0  0  0  0  0  0  0  0  0
   24.0833   28.0741   32.4586 H   0  0  0  0  0  0  0  0  0  0  0  0
   22.9966   29.0249   29.9645 H   0  0  0  0  0  0  0  0  0  0  0  0
   21.0292   28.3059   32.0584 H   0  0  0  0  0  0  0  0  0  0  0  0
   21.3333   27.5906   30.4029 H   0  0  0  0  0  0  0  0  0  0  0  0
   22.4755   26.5371   33.4684 H   0  0  0  0  0  0  0  0  0  0  0  0
   21.7502   29.7483   33.3007 H   0  0  0  0  0  0  0  0  0  0  0  0
   21.4882   32.3720   33.4815 H   0  0  0  0  0  0  0  0  0  0  0  0
   20.4206   32.0702   32.0265 H   0  0  0  0  0  0  0  0  0  0  0  0
  2  1  1  0
  2  3  1  0
  2  6  1  0
  3  4  2  0
  3  5  1  0
  6  7  1  0
  7  8  1  0
  8  9  2  0
  8 10  1  0
 10 11  1  0
 11 12  1  0
 11 14  1  0
 12 13  2  0
 12 16  1  0
 14 15  1  0
 16 17  1  0
 17 18  1  0
 18 19  2  0
 18 20  1  0
  1 21  1  0
  1 22  1  0
  1 23  1  0
  2 24  1  6
  6 25  1  0
  6 26  1  0
  7 27  1  0
  7 28  1  0
 10 29  1  0
 11 30  1  6
 14 31  1  0
 14 32  1  0
 15 33  1  0
 16 34  1  0
 17 35  1  0
 17 36  1  0
M  CHG  3   1   1   5  -1  20  -1
M  END
>  <filename_input>  (25) 
8D19_GSH_docked.sdf

>  <pdb_id>  (25) 
8D19_GSH

>  <pose_rank>  (25) 
24

>  <num_atoms_heavy>  (25) 
20

>  <num_torsions>  (25) 
9

>  <pose>  (25) 
[25.189709496869206, 29.351099265762468, 31.327141465534243, 4.388045591890091, -3.991155502682673, 2.081458524472555, 4.737956876077658, 6.195765154054171, 0.47202439908005267, -0.7210519703421634, 0.10853769570674518, 5.118451599705758, -2.07661231424669, 2.8814991013889544, 0.9013467119392077]

>  <energy>  (25) 
-305.36552315559067

>  <inter_energy>  (25) 
-319.1653735872502

>  <intra_energy>  (25) 
12.399573630073833

>  <rmsd>  (25) 
3.53535

>  <sdf_rank>  (25) 
0

$$$$

     RDKit          3D

 36 35  0  0  0  0  0  0  0  0999 V2000
   28.1430   27.5410   31.2940 N   0  0  0  0  0  0  0  0  0  0  0  0
   27.6570   28.5840   30.3480 C   0  0  2  0  0  0  0  0  0  0  0  0
   28.6990   28.7890   29.2440 C   0  0  0  0  0  0  0  0  0  0  0  0
   28.2870   29.0930   28.1180 O   0  0  0  0  0  0  0  0  0  0  0  0
   29.8910   28.6670   29.5640 O   0  0  0  0  0  0  0  0  0  0  0  0
   27.4310   29.9110   31.0780 C   0  0  0  0  0  0  0  0  0  0  0  0
   26.1530   29.9390   31.9050 C   0  0  0  0  0  0  0  0  0  0  0  0
   24.9250   30.3200   31.1020 C   0  0  0  0  0  0  0  0  0  0  0  0
   24.9680   31.1490   30.1980 O   0  0  0  0  0  0  0  0  0  0  0  0
   23.7890   29.7240   31.4630 N   0  0  0  0  0  0  0  0  0  0  0  0
   22.5090   29.9780   30.8220 C   0  0  2  0  0  0  0  0  0  0  0  0
   21.8210   31.2640   31.2840 C   0  0  0  0  0  0  0  0  0  0  0  0
   20.8090   31.6450   30.7020 O   0  0  0  0  0  0  0  0  0  0  0  0
   21.5610   28.8070   31.0160 C   0  0  0  0  0  0  0  0  0  0  0  0
   22.1140   27.2800   30.2140 S   0  0  0  0  0  0  0  0  0  0  0  0
   22.3650   31.9150   32.3150 N   0  0  0  0  0  0  0  0  0  0  0  0
   21.6880   33.0260   32.9530 C   0  0  0  0  0  0  0  0  0  0  0  0
   22.1550   34.3970   32.4650 C   0  0  0  0  0  0  0  0  0  0  0  0
   22.7400   34.4640   31.3670 O   0  0  0  0  0  0  0  0  0  0  0  0
   21.8950   35.3700   33.2040 O   0  0  0  0  0  0  0  0  0  0  0  0
   27.9945   27.8596   32.2622 H   0  0  0  0  0  0  0  0  0  0  0  0
   27.6230   26.6659   31.1370 H   0  0  0  0  0  0  0  0  0  0  0  0
   29.1476   27.3763   31.1370 H   0  0  0  0  0  0  0  0  0  0  0  0
   26.7030   28.2505   29.9136 H   0  0  0  0  0  0  0  0  0  0  0  0
   28.2841   30.0888   31.7493 H   0  0  0  0  0  0  0  0  0  0  0  0
   27.3358   30.6915   30.3087 H   0  0  0  0  0  0  0  0  0  0  0  0
   25.9929   28.9386   32.3335 H   0  0  0  0  0  0  0  0  0  0  0  0
   26.2850   30.7073   32.6811 H   0  0  0  0  0  0  0  0  0  0  0  0
   23.8195   29.0466   32.2383 H   0  0  0  0  0  0  0  0  0  0  0  0
   22.7459   30.1066   29.7555 H   0  0  0  0  0  0  0  0  0  0  0  0
   21.4615   28.6161   32.0947 H   0  0  0  0  0  0  0  0  0  0  0  0
   20.6053   29.0870   30.5488 H   0  0  0  0  0  0  0  0  0  0  0  0
   22.4482   26.3573   31.1699 H   0  0  0  0  0  0  0  0  0  0  0  0
   23.2878   31.6205   32.6652 H   0  0  0  0  0  0  0  0  0  0  0  0
   20.6100   32.9358   32.7534 H   0  0  0  0  0  0  0  0  0  0  0  0
   21.9242   32.9709   34.0259 H   0  0  0  0  0  0  0  0  0  0  0  0
  2  1  1  0
  2  3  1  0
  2  6  1  0
  3  4  2  0
  3  5  1  0
  6  7  1  0
  7  8  1  0
  8  9  2  0
  8 10  1  0
 10 11  1  0
 11 12  1  0
 11 14  1  0
 12 13  2  0
 12 16  1  0
 14 15  1  0
 16 17  1  0
 17 18  1  0
 18 19  2  0
 18 20  1  0
  1 21  1  0
  1 22  1  0
  1 23  1  0
  2 24  1  6
  6 25  1  0
  6 26  1  0
  7 27  1  0
  7 28  1  0
 10 29  1  0
 11 30  1  6
 14 31  1  0
 14 32  1  0
 15 33  1  0
 16 34  1  0
 17 35  1  0
 17 36  1  0
M  CHG  3   1   1   5  -1  20  -1
M  END
>  <filename_input>  (26) 
8D19_GSH_docked.sdf

>  <pdb_id>  (26) 
8D19_GSH

>  <pose_rank>  (26) 
25

>  <num_atoms_heavy>  (26) 
20

>  <num_torsions>  (26) 
9

>  <pose>  (26) 
[24.925, 30.32, 31.102, 1e-06, 1e-06, 1e-06, 0.0, 0.0, 0.0, 0.0, 0.0, 0.0, 0.0, 0.0, 0.0]

>  <energy>  (26) 
-424.3660690680557

>  <inter_energy>  (26) 
-440.75419869236435

>  <intra_energy>  (26) 
10.628990995690517

>  <rmsd>  (26) 
0.0

>  <sdf_rank>  (26) 
0

$$$$
