
     RDKit          3D

 26 27  0  0  0  0  0  0  0  0999 V2000
    2.0992   -0.6298   23.5671 C   0  0  0  0  0  0  0  0  0  0  0  0
    2.0056   -1.6165   22.5944 C   0  0  0  0  0  0  0  0  0  0  0  0
    2.5488   -1.4250   21.3265 C   0  0  0  0  0  0  0  0  0  0  0  0
    3.2003   -0.2454   20.9862 C   0  0  0  0  0  0  0  0  0  0  0  0
    3.2601    0.7367   21.9866 C   0  0  0  0  0  0  0  0  0  0  0  0
    2.7232    0.5502   23.2481 C   0  0  0  0  0  0  0  0  0  0  0  0
    3.8058    0.0147   19.6233 C   0  0  0  0  0  0  0  0  0  0  0  0
    3.8580    1.3582   19.0425 C   0  0  0  0  0  0  0  0  0  0  0  0
    2.7859    1.8850   18.3156 C   0  0  0  0  0  0  0  0  0  0  0  0
    2.8524    3.1175   17.7155 C   0  0  0  0  0  0  0  0  0  0  0  0
    4.0154    3.8709   17.7845 C   0  0  0  0  0  0  0  0  0  0  0  0
    5.0862    3.3505   18.4884 C   0  0  0  0  0  0  0  0  0  0  0  0
    5.0102    2.1219   19.0928 C   0  0  0  0  0  0  0  0  0  0  0  0
    4.1433    5.2032   17.0837 C   0  0  0  0  0  0  0  0  0  0  0  0
    4.1740   -0.9637   19.0060 O   0  0  0  0  0  0  0  0  0  0  0  0
    3.1255    5.5581   16.4726 O   0  0  0  0  0  0  0  0  0  0  0  0
    5.1870    5.8649   17.2576 O   0  0  0  0  0  0  0  0  0  0  0  0
    1.6820   -0.7906   24.5722 H   0  0  0  0  0  0  0  0  0  0  0  0
    1.4953   -2.5624   22.8286 H   0  0  0  0  0  0  0  0  0  0  0  0
    2.4603   -2.2256   20.5773 H   0  0  0  0  0  0  0  0  0  0  0  0
    3.7537    1.6930   21.7590 H   0  0  0  0  0  0  0  0  0  0  0  0
    2.7967    1.3511   23.9985 H   0  0  0  0  0  0  0  0  0  0  0  0
    1.8625    1.2945   18.2220 H   0  0  0  0  0  0  0  0  0  0  0  0
    1.9780    3.5106   17.1763 H   0  0  0  0  0  0  0  0  0  0  0  0
    6.0162    3.9330   18.5647 H   0  0  0  0  0  0  0  0  0  0  0  0
    5.8876    1.7340   19.6312 H   0  0  0  0  0  0  0  0  0  0  0  0
  1  2  2  0
  1  6  1  0
  2  3  1  0
  3  4  2  0
  4  5  1  0
  4  7  1  0
  5  6  2  0
  7  8  1  0
  7 15  2  0
  8  9  2  0
  8 13  1  0
  9 10  1  0
 10 11  2  0
 11 12  1  0
 11 14  1  0
 12 13  2  0
 14 16  2  0
 14 17  1  0
  1 18  1  0
  2 19  1  0
  3 20  1  0
  5 21  1  0
  6 22  1  0
  9 23  1  0
 10 24  1  0
 12 25  1  0
 13 26  1  0
M  CHG  1  17  -1
M  END
>  <filename_input>  (1) 
8D39_QDB_docked.sdf

>  <pdb_id>  (1) 
8D39_QDB

>  <pose_rank>  (1) 
0

>  <num_atoms_heavy>  (1) 
17

>  <num_torsions>  (1) 
3

>  <pose>  (1) 
[3.85802497548636, 1.3581991075651874, 19.042496304749303, 0.3633170109965136, 3.187578435519414, -1.5368604122827931, 2.843955198373856, -2.4840707049314252, -0.5916106968932834]

>  <energy>  (1) 
-1027.219718516134

>  <inter_energy>  (1) 
-1009.6926654090923

>  <intra_energy>  (1) 
0.6345499831032969

>  <rmsd>  (1) 
0.445399

>  <sdf_rank>  (1) 
0

$$$$

     RDKit          3D

 26 27  0  0  0  0  0  0  0  0999 V2000
    2.5135   -0.0659   23.5297 C   0  0  0  0  0  0  0  0  0  0  0  0
    2.0444    1.0478   22.8451 C   0  0  0  0  0  0  0  0  0  0  0  0
    2.3633    1.2503   21.5048 C   0  0  0  0  0  0  0  0  0  0  0  0
    3.1603    0.3527   20.8042 C   0  0  0  0  0  0  0  0  0  0  0  0
    3.6319   -0.7508   21.5314 C   0  0  0  0  0  0  0  0  0  0  0  0
    3.3164   -0.9569   22.8628 C   0  0  0  0  0  0  0  0  0  0  0  0
    3.5385    0.5264   19.3487 C   0  0  0  0  0  0  0  0  0  0  0  0
    3.8542    1.8394   18.7818 C   0  0  0  0  0  0  0  0  0  0  0  0
    4.8002    2.6841   19.3706 C   0  0  0  0  0  0  0  0  0  0  0  0
    5.0548    3.9407   18.8810 C   0  0  0  0  0  0  0  0  0  0  0  0
    4.3447    4.4286   17.7936 C   0  0  0  0  0  0  0  0  0  0  0  0
    3.3959    3.6054   17.2147 C   0  0  0  0  0  0  0  0  0  0  0  0
    3.1523    2.3476   17.7036 C   0  0  0  0  0  0  0  0  0  0  0  0
    4.5562    5.8292   17.2684 C   0  0  0  0  0  0  0  0  0  0  0  0
    3.4887   -0.4723   18.6603 O   0  0  0  0  0  0  0  0  0  0  0  0
    3.9997    6.7134   17.9345 O   0  0  0  0  0  0  0  0  0  0  0  0
    5.3328    5.9882   16.3045 O   0  0  0  0  0  0  0  0  0  0  0  0
    2.2471   -0.2302   24.5842 H   0  0  0  0  0  0  0  0  0  0  0  0
    1.4122    1.7799   23.3689 H   0  0  0  0  0  0  0  0  0  0  0  0
    1.9756    2.1410   20.9887 H   0  0  0  0  0  0  0  0  0  0  0  0
    4.2782   -1.4812   21.0228 H   0  0  0  0  0  0  0  0  0  0  0  0
    3.7108   -1.8388   23.3889 H   0  0  0  0  0  0  0  0  0  0  0  0
    5.3564    2.3314   20.2516 H   0  0  0  0  0  0  0  0  0  0  0  0
    5.8271    4.5653   19.3539 H   0  0  0  0  0  0  0  0  0  0  0  0
    2.8260    3.9665   16.3458 H   0  0  0  0  0  0  0  0  0  0  0  0
    2.3793    1.7272   17.2264 H   0  0  0  0  0  0  0  0  0  0  0  0
  1  2  2  0
  1  6  1  0
  2  3  1  0
  3  4  2  0
  4  5  1  0
  4  7  1  0
  5  6  2  0
  7  8  1  0
  7 15  2  0
  8  9  2  0
  8 13  1  0
  9 10  1  0
 10 11  2  0
 11 12  1  0
 11 14  1  0
 12 13  2  0
 14 16  2  0
 14 17  1  0
  1 18  1  0
  2 19  1  0
  3 20  1  0
  5 21  1  0
  6 22  1  0
  9 23  1  0
 10 24  1  0
 12 25  1  0
 13 26  1  0
M  CHG  1  17  -1
M  END
>  <filename_input>  (2) 
8D39_QDB_docked.sdf

>  <pdb_id>  (2) 
8D39_QDB

>  <pose_rank>  (2) 
1

>  <num_atoms_heavy>  (2) 
17

>  <num_torsions>  (2) 
3

>  <pose>  (2) 
[3.854190578994001, 1.839375550447686, 18.781759644630654, -4.703884431345623, 3.2169208635495115, 2.4896598081357997, -4.823019031834714, -6.358195617650356, -2.5035669301780326]

>  <energy>  (2) 
-863.5718724018508

>  <inter_energy>  (2) 
-845.7829856813839

>  <intra_energy>  (2) 
1.9891714573963148

>  <rmsd>  (2) 
0.862923

>  <sdf_rank>  (2) 
0

$$$$

     RDKit          3D

 26 27  0  0  0  0  0  0  0  0999 V2000
    4.0151   -3.1441   19.3993 C   0  0  0  0  0  0  0  0  0  0  0  0
    4.3077   -2.1647   18.4590 C   0  0  0  0  0  0  0  0  0  0  0  0
    4.0757   -0.8190   18.7319 C   0  0  0  0  0  0  0  0  0  0  0  0
    3.5437   -0.4057   19.9476 C   0  0  0  0  0  0  0  0  0  0  0  0
    3.2428   -1.4226   20.8666 C   0  0  0  0  0  0  0  0  0  0  0  0
    3.4730   -2.7607   20.6003 C   0  0  0  0  0  0  0  0  0  0  0  0
    3.2701    1.0424   20.2941 C   0  0  0  0  0  0  0  0  0  0  0  0
    3.5896    2.1335   19.3708 C   0  0  0  0  0  0  0  0  0  0  0  0
    4.4627    3.1653   19.7291 C   0  0  0  0  0  0  0  0  0  0  0  0
    4.7171    4.2233   18.8928 C   0  0  0  0  0  0  0  0  0  0  0  0
    4.0781    4.3181   17.6650 C   0  0  0  0  0  0  0  0  0  0  0  0
    3.2008    3.3097   17.3093 C   0  0  0  0  0  0  0  0  0  0  0  0
    2.9575    2.2509   18.1460 C   0  0  0  0  0  0  0  0  0  0  0  0
    4.2881    5.5000   16.7477 C   0  0  0  0  0  0  0  0  0  0  0  0
    2.8441    1.2538   21.4111 O   0  0  0  0  0  0  0  0  0  0  0  0
    3.3520    5.7099   15.9635 O   0  0  0  0  0  0  0  0  0  0  0  0
    5.3012    6.2084   16.9186 O   0  0  0  0  0  0  0  0  0  0  0  0
    4.2137   -4.2047   19.1858 H   0  0  0  0  0  0  0  0  0  0  0  0
    4.7285   -2.4560   17.4854 H   0  0  0  0  0  0  0  0  0  0  0  0
    4.3192   -0.0659   17.9680 H   0  0  0  0  0  0  0  0  0  0  0  0
    2.8065   -1.1448   21.8374 H   0  0  0  0  0  0  0  0  0  0  0  0
    3.2203   -3.5205   21.3545 H   0  0  0  0  0  0  0  0  0  0  0  0
    4.9601    3.1278   20.7096 H   0  0  0  0  0  0  0  0  0  0  0  0
    5.4323    5.0013   19.1980 H   0  0  0  0  0  0  0  0  0  0  0  0
    2.6887    3.3580   16.3370 H   0  0  0  0  0  0  0  0  0  0  0  0
    2.2418    1.4755   17.8355 H   0  0  0  0  0  0  0  0  0  0  0  0
  1  2  2  0
  1  6  1  0
  2  3  1  0
  3  4  2  0
  4  5  1  0
  4  7  1  0
  5  6  2  0
  7  8  1  0
  7 15  2  0
  8  9  2  0
  8 13  1  0
  9 10  1  0
 10 11  2  0
 11 12  1  0
 11 14  1  0
 12 13  2  0
 14 16  2  0
 14 17  1  0
  1 18  1  0
  2 19  1  0
  3 20  1  0
  5 21  1  0
  6 22  1  0
  9 23  1  0
 10 24  1  0
 12 25  1  0
 13 26  1  0
M  CHG  1  17  -1
M  END
>  <filename_input>  (3) 
8D39_QDB_docked.sdf

>  <pdb_id>  (3) 
8D39_QDB

>  <pose_rank>  (3) 
2

>  <num_atoms_heavy>  (3) 
17

>  <num_torsions>  (3) 
3

>  <pose>  (3) 
[3.5895696032226416, 2.1334597658319883, 19.370820837773714, 5.536182114520557, 2.2614790065307395, -0.4724311794807537, 0.1188561022417345, 9.46687497967919, 3.075080572498352]

>  <energy>  (3) 
-778.428001083966

>  <inter_energy>  (3) 
-781.9572634195953

>  <intra_energy>  (3) 
6.931895329145314

>  <rmsd>  (3) 
2.53784

>  <sdf_rank>  (3) 
0

$$$$

     RDKit          3D

 26 27  0  0  0  0  0  0  0  0999 V2000
    1.6113   -1.8410   22.2413 C   0  0  0  0  0  0  0  0  0  0  0  0
    2.0885   -0.8610   23.1019 C   0  0  0  0  0  0  0  0  0  0  0  0
    3.0045    0.0918   22.6633 C   0  0  0  0  0  0  0  0  0  0  0  0
    3.4758    0.0982   21.3558 C   0  0  0  0  0  0  0  0  0  0  0  0
    2.9872   -0.9168   20.5192 C   0  0  0  0  0  0  0  0  0  0  0  0
    2.0759   -1.8646   20.9502 C   0  0  0  0  0  0  0  0  0  0  0  0
    4.4724    1.1087   20.8288 C   0  0  0  0  0  0  0  0  0  0  0  0
    4.1400    2.0288   19.7390 C   0  0  0  0  0  0  0  0  0  0  0  0
    3.2424    1.6733   18.7273 C   0  0  0  0  0  0  0  0  0  0  0  0
    2.9749    2.5061   17.6697 C   0  0  0  0  0  0  0  0  0  0  0  0
    3.6240    3.7269   17.5546 C   0  0  0  0  0  0  0  0  0  0  0  0
    4.5252    4.0795   18.5428 C   0  0  0  0  0  0  0  0  0  0  0  0
    4.7817    3.2464   19.6015 C   0  0  0  0  0  0  0  0  0  0  0  0
    3.3991    4.6394   16.3718 C   0  0  0  0  0  0  0  0  0  0  0  0
    5.5873    1.0598   21.3070 O   0  0  0  0  0  0  0  0  0  0  0  0
    3.9418    5.7487   16.4728 O   0  0  0  0  0  0  0  0  0  0  0  0
    2.7974    4.1825   15.3785 O   0  0  0  0  0  0  0  0  0  0  0  0
    0.8764   -2.5828   22.5873 H   0  0  0  0  0  0  0  0  0  0  0  0
    1.7380   -0.8370   24.1443 H   0  0  0  0  0  0  0  0  0  0  0  0
    3.3631    0.8568   23.3677 H   0  0  0  0  0  0  0  0  0  0  0  0
    3.3427   -0.9608   19.4792 H   0  0  0  0  0  0  0  0  0  0  0  0
    1.7223   -2.6402   20.2550 H   0  0  0  0  0  0  0  0  0  0  0  0
    2.7362    0.6982   18.7807 H   0  0  0  0  0  0  0  0  0  0  0  0
    2.2409    2.2037   16.9082 H   0  0  0  0  0  0  0  0  0  0  0  0
    5.0459    5.0463   18.4783 H   0  0  0  0  0  0  0  0  0  0  0  0
    5.5161    3.5542   20.3603 H   0  0  0  0  0  0  0  0  0  0  0  0
  1  2  2  0
  1  6  1  0
  2  3  1  0
  3  4  2  0
  4  5  1  0
  4  7  1  0
  5  6  2  0
  7  8  1  0
  7 15  2  0
  8  9  2  0
  8 13  1  0
  9 10  1  0
 10 11  2  0
 11 12  1  0
 11 14  1  0
 12 13  2  0
 14 16  2  0
 14 17  1  0
  1 18  1  0
  2 19  1  0
  3 20  1  0
  5 21  1  0
  6 22  1  0
  9 23  1  0
 10 24  1  0
 12 25  1  0
 13 26  1  0
M  CHG  1  17  -1
M  END
>  <filename_input>  (4) 
8D39_QDB_docked.sdf

>  <pdb_id>  (4) 
8D39_QDB

>  <pose_rank>  (4) 
3

>  <num_atoms_heavy>  (4) 
17

>  <num_torsions>  (4) 
3

>  <pose>  (4) 
[4.139960759116482, 2.0287735484324667, 19.738994751411656, 0.10351230292183947, -2.5416847137652936, 1.958702778579939, -0.4356216322973872, -1.5300169398597905, 1.0464450735821285]

>  <energy>  (4) 
-705.3925670364007

>  <inter_energy>  (4) 
-703.0863960815806

>  <intra_energy>  (4) 
12.292390714400076

>  <rmsd>  (4) 
1.69111

>  <sdf_rank>  (4) 
0

$$$$

     RDKit          3D

 26 27  0  0  0  0  0  0  0  0999 V2000
    2.5806   -0.3551   23.7993 C   0  0  0  0  0  0  0  0  0  0  0  0
    2.1110   -1.2740   22.8698 C   0  0  0  0  0  0  0  0  0  0  0  0
    2.3095   -1.0769   21.5057 C   0  0  0  0  0  0  0  0  0  0  0  0
    2.9795    0.0413   21.0234 C   0  0  0  0  0  0  0  0  0  0  0  0
    3.4239    0.9577   21.9887 C   0  0  0  0  0  0  0  0  0  0  0  0
    3.2302    0.7652   23.3451 C   0  0  0  0  0  0  0  0  0  0  0  0
    3.2200    0.3048   19.5522 C   0  0  0  0  0  0  0  0  0  0  0  0
    3.5270    1.6440   19.0451 C   0  0  0  0  0  0  0  0  0  0  0  0
    2.5919    2.3836   18.3145 C   0  0  0  0  0  0  0  0  0  0  0  0
    2.8945    3.6122   17.7828 C   0  0  0  0  0  0  0  0  0  0  0  0
    4.1667    4.1465   17.9273 C   0  0  0  0  0  0  0  0  0  0  0  0
    5.1026    3.4144   18.6352 C   0  0  0  0  0  0  0  0  0  0  0  0
    4.7912    2.1912   19.1712 C   0  0  0  0  0  0  0  0  0  0  0  0
    4.5511    5.4670   17.3022 C   0  0  0  0  0  0  0  0  0  0  0  0
    3.0664   -0.6415   18.8072 O   0  0  0  0  0  0  0  0  0  0  0  0
    3.6427    6.0100   16.6577 O   0  0  0  0  0  0  0  0  0  0  0  0
    5.6762    5.9396   17.5633 O   0  0  0  0  0  0  0  0  0  0  0  0
    2.4351   -0.5218   24.8768 H   0  0  0  0  0  0  0  0  0  0  0  0
    1.5747   -2.1699   23.2160 H   0  0  0  0  0  0  0  0  0  0  0  0
    1.9273   -1.8231   20.7935 H   0  0  0  0  0  0  0  0  0  0  0  0
    3.9471    1.8655   21.6536 H   0  0  0  0  0  0  0  0  0  0  0  0
    3.5985    1.5133   24.0625 H   0  0  0  0  0  0  0  0  0  0  0  0
    1.5846    1.9689   18.1615 H   0  0  0  0  0  0  0  0  0  0  0  0
    2.1234    4.1769   17.2385 H   0  0  0  0  0  0  0  0  0  0  0  0
    6.1157    3.8209   18.7708 H   0  0  0  0  0  0  0  0  0  0  0  0
    5.5661    1.6310   19.7151 H   0  0  0  0  0  0  0  0  0  0  0  0
  1  2  2  0
  1  6  1  0
  2  3  1  0
  3  4  2  0
  4  5  1  0
  4  7  1  0
  5  6  2  0
  7  8  1  0
  7 15  2  0
  8  9  2  0
  8 13  1  0
  9 10  1  0
 10 11  2  0
 11 12  1  0
 11 14  1  0
 12 13  2  0
 14 16  2  0
 14 17  1  0
  1 18  1  0
  2 19  1  0
  3 20  1  0
  5 21  1  0
  6 22  1  0
  9 23  1  0
 10 24  1  0
 12 25  1  0
 13 26  1  0
M  CHG  1  17  -1
M  END
>  <filename_input>  (5) 
8D39_QDB_docked.sdf

>  <pdb_id>  (5) 
8D39_QDB

>  <pose_rank>  (5) 
4

>  <num_atoms_heavy>  (5) 
17

>  <num_torsions>  (5) 
3

>  <pose>  (5) 
[3.527003042720023, 1.6440011804514165, 19.045148984374645, -0.4910675561902614, -2.417539014656863, 1.0434754456485869, 2.820457969606441, 3.4240833486119233, 5.900076566654537]

>  <energy>  (5) 
-955.5925727531292

>  <inter_energy>  (5) 
-952.8195420260423

>  <intra_energy>  (5) 
5.655447284661384

>  <rmsd>  (5) 
0.566136

>  <sdf_rank>  (5) 
0

$$$$

     RDKit          3D

 26 27  0  0  0  0  0  0  0  0999 V2000
    4.9404   -3.0314   18.9406 C   0  0  0  0  0  0  0  0  0  0  0  0
    4.2714   -2.8858   20.1489 C   0  0  0  0  0  0  0  0  0  0  0  0
    3.7073   -1.6653   20.5117 C   0  0  0  0  0  0  0  0  0  0  0  0
    3.7929   -0.5514   19.6849 C   0  0  0  0  0  0  0  0  0  0  0  0
    4.4915   -0.7292   18.4810 C   0  0  0  0  0  0  0  0  0  0  0  0
    5.0522   -1.9403   18.1159 C   0  0  0  0  0  0  0  0  0  0  0  0
    3.2002    0.7977   20.0319 C   0  0  0  0  0  0  0  0  0  0  0  0
    3.5411    2.0093   19.2831 C   0  0  0  0  0  0  0  0  0  0  0  0
    4.5296    2.8926   19.7282 C   0  0  0  0  0  0  0  0  0  0  0  0
    4.8099    4.0611   19.0652 C   0  0  0  0  0  0  0  0  0  0  0  0
    4.0852    4.4210   17.9382 C   0  0  0  0  0  0  0  0  0  0  0  0
    3.0949    3.5606   17.5001 C   0  0  0  0  0  0  0  0  0  0  0  0
    2.8255    2.3904   18.1623 C   0  0  0  0  0  0  0  0  0  0  0  0
    4.3260    5.7288   17.2212 C   0  0  0  0  0  0  0  0  0  0  0  0
    2.4878    0.8322   21.0144 O   0  0  0  0  0  0  0  0  0  0  0  0
    3.3474    6.1527   16.5905 O   0  0  0  0  0  0  0  0  0  0  0  0
    5.4156    6.3100   17.4015 O   0  0  0  0  0  0  0  0  0  0  0  0
    5.3717   -4.0010   18.6508 H   0  0  0  0  0  0  0  0  0  0  0  0
    4.1858   -3.7463   20.8287 H   0  0  0  0  0  0  0  0  0  0  0  0
    3.1820   -1.5810   21.4745 H   0  0  0  0  0  0  0  0  0  0  0  0
    4.5977    0.1284   17.8005 H   0  0  0  0  0  0  0  0  0  0  0  0
    5.5899   -2.0289   17.1603 H   0  0  0  0  0  0  0  0  0  0  0  0
    5.0989    2.6437   20.6360 H   0  0  0  0  0  0  0  0  0  0  0  0
    5.6145    4.7167   19.4298 H   0  0  0  0  0  0  0  0  0  0  0  0
    2.5125    3.8198   16.6036 H   0  0  0  0  0  0  0  0  0  0  0  0
    2.0202    1.7384   17.7930 H   0  0  0  0  0  0  0  0  0  0  0  0
  1  2  2  0
  1  6  1  0
  2  3  1  0
  3  4  2  0
  4  5  1  0
  4  7  1  0
  5  6  2  0
  7  8  1  0
  7 15  2  0
  8  9  2  0
  8 13  1  0
  9 10  1  0
 10 11  2  0
 11 12  1  0
 11 14  1  0
 12 13  2  0
 14 16  2  0
 14 17  1  0
  1 18  1  0
  2 19  1  0
  3 20  1  0
  5 21  1  0
  6 22  1  0
  9 23  1  0
 10 24  1  0
 12 25  1  0
 13 26  1  0
M  CHG  1  17  -1
M  END
>  <filename_input>  (6) 
8D39_QDB_docked.sdf

>  <pdb_id>  (6) 
8D39_QDB

>  <pose_rank>  (6) 
5

>  <num_atoms_heavy>  (6) 
17

>  <num_torsions>  (6) 
3

>  <pose>  (6) 
[3.541093465111466, 2.0093297208614413, 19.283139079162318, -0.08923606186841132, -0.009899898256259011, -0.05753088939951874, 0.1333542597644294, 28.747400655909843, 6.023120288156229]

>  <energy>  (6) 
-737.7431482810754

>  <inter_energy>  (6) 
-719.5652814456165

>  <intra_energy>  (6) 
1.8614605032450056

>  <rmsd>  (6) 
2.73884

>  <sdf_rank>  (6) 
0

$$$$

     RDKit          3D

 26 27  0  0  0  0  0  0  0  0999 V2000
    2.2143   -0.2206   24.0940 C   0  0  0  0  0  0  0  0  0  0  0  0
    1.9284    0.8271   23.2284 C   0  0  0  0  0  0  0  0  0  0  0  0
    2.3685    0.8040   21.9074 C   0  0  0  0  0  0  0  0  0  0  0  0
    3.1082   -0.2609   21.4069 C   0  0  0  0  0  0  0  0  0  0  0  0
    3.3945   -1.2930   22.3136 C   0  0  0  0  0  0  0  0  0  0  0  0
    2.9581   -1.2749   23.6265 C   0  0  0  0  0  0  0  0  0  0  0  0
    3.6125   -0.3349   19.9814 C   0  0  0  0  0  0  0  0  0  0  0  0
    3.7517    0.8599   19.1460 C   0  0  0  0  0  0  0  0  0  0  0  0
    4.6875    1.8562   19.4413 C   0  0  0  0  0  0  0  0  0  0  0  0
    4.7799    3.0072   18.6996 C   0  0  0  0  0  0  0  0  0  0  0  0
    3.9107    3.2336   17.6422 C   0  0  0  0  0  0  0  0  0  0  0  0
    2.9716    2.2603   17.3529 C   0  0  0  0  0  0  0  0  0  0  0  0
    2.8901    1.1085   18.0928 C   0  0  0  0  0  0  0  0  0  0  0  0
    3.9445    4.5163   16.8448 C   0  0  0  0  0  0  0  0  0  0  0  0
    3.8199   -1.4485   19.5446 O   0  0  0  0  0  0  0  0  0  0  0  0
    4.5236    5.4540   17.4110 O   0  0  0  0  0  0  0  0  0  0  0  0
    3.4977    4.5001   15.6796 O   0  0  0  0  0  0  0  0  0  0  0  0
    1.8522   -0.2057   25.1326 H   0  0  0  0  0  0  0  0  0  0  0  0
    1.3464    1.6871   23.5912 H   0  0  0  0  0  0  0  0  0  0  0  0
    2.1251    1.6477   21.2449 H   0  0  0  0  0  0  0  0  0  0  0  0
    3.9897   -2.1506   21.9668 H   0  0  0  0  0  0  0  0  0  0  0  0
    3.2083   -2.1091   24.2983 H   0  0  0  0  0  0  0  0  0  0  0  0
    5.3692    1.7132   20.2927 H   0  0  0  0  0  0  0  0  0  0  0  0
    5.5481    3.7552   18.9451 H   0  0  0  0  0  0  0  0  0  0  0  0
    2.2770    2.4129   16.5137 H   0  0  0  0  0  0  0  0  0  0  0  0
    2.1203    0.3637   17.8425 H   0  0  0  0  0  0  0  0  0  0  0  0
  1  2  2  0
  1  6  1  0
  2  3  1  0
  3  4  2  0
  4  5  1  0
  4  7  1  0
  5  6  2  0
  7  8  1  0
  7 15  2  0
  8  9  2  0
  8 13  1  0
  9 10  1  0
 10 11  2  0
 11 12  1  0
 11 14  1  0
 12 13  2  0
 14 16  2  0
 14 17  1  0
  1 18  1  0
  2 19  1  0
  3 20  1  0
  5 21  1  0
  6 22  1  0
  9 23  1  0
 10 24  1  0
 12 25  1  0
 13 26  1  0
M  CHG  1  17  -1
M  END
>  <filename_input>  (7) 
8D39_QDB_docked.sdf

>  <pdb_id>  (7) 
8D39_QDB

>  <pose_rank>  (7) 
6

>  <num_atoms_heavy>  (7) 
17

>  <num_torsions>  (7) 
3

>  <pose>  (7) 
[3.7517419810602752, 0.8599226487686097, 19.146009062103488, -5.271507248607293, 3.334249414217015, 1.6712948470997078, -3.7798403538742016, -6.106881909511334, -2.8178484126300747]

>  <energy>  (7) 
-805.3927697556034

>  <inter_energy>  (7) 
-799.750852170219

>  <intra_energy>  (7) 
1.9523057220121471

>  <rmsd>  (7) 
0.680153

>  <sdf_rank>  (7) 
0

$$$$

     RDKit          3D

 26 27  0  0  0  0  0  0  0  0999 V2000
    2.2109    0.0326   24.4382 C   0  0  0  0  0  0  0  0  0  0  0  0
    1.7838    1.0597   23.6067 C   0  0  0  0  0  0  0  0  0  0  0  0
    2.0903    1.0546   22.2482 C   0  0  0  0  0  0  0  0  0  0  0  0
    2.8326    0.0290   21.6751 C   0  0  0  0  0  0  0  0  0  0  0  0
    3.2634   -0.9823   22.5474 C   0  0  0  0  0  0  0  0  0  0  0  0
    2.9600   -0.9821   23.8973 C   0  0  0  0  0  0  0  0  0  0  0  0
    3.1952   -0.0238   20.2062 C   0  0  0  0  0  0  0  0  0  0  0  0
    3.4553    1.1896   19.4284 C   0  0  0  0  0  0  0  0  0  0  0  0
    2.8248    1.4239   18.2024 C   0  0  0  0  0  0  0  0  0  0  0  0
    3.1113    2.5278   17.4390 C   0  0  0  0  0  0  0  0  0  0  0  0
    4.0746    3.4371   17.8516 C   0  0  0  0  0  0  0  0  0  0  0  0
    4.7143    3.2047   19.0556 C   0  0  0  0  0  0  0  0  0  0  0  0
    4.4173    2.1040   19.8178 C   0  0  0  0  0  0  0  0  0  0  0  0
    4.4580    4.6289   17.0061 C   0  0  0  0  0  0  0  0  0  0  0  0
    3.1809   -1.1230   19.6909 O   0  0  0  0  0  0  0  0  0  0  0  0
    5.5014    5.1936   17.3636 O   0  0  0  0  0  0  0  0  0  0  0  0
    3.7778    4.8760   15.9894 O   0  0  0  0  0  0  0  0  0  0  0  0
    1.9541    0.0324   25.5078 H   0  0  0  0  0  0  0  0  0  0  0  0
    1.1954    1.8886   24.0269 H   0  0  0  0  0  0  0  0  0  0  0  0
    1.7367    1.8812   21.6144 H   0  0  0  0  0  0  0  0  0  0  0  0
    3.8663   -1.8081   22.1418 H   0  0  0  0  0  0  0  0  0  0  0  0
    3.3208   -1.7988   24.5398 H   0  0  0  0  0  0  0  0  0  0  0  0
    2.0778    0.7027   17.8395 H   0  0  0  0  0  0  0  0  0  0  0  0
    2.5737    2.6928   16.4936 H   0  0  0  0  0  0  0  0  0  0  0  0
    5.4756    3.9160   19.4084 H   0  0  0  0  0  0  0  0  0  0  0  0
    4.9576    1.9444   20.7626 H   0  0  0  0  0  0  0  0  0  0  0  0
  1  2  2  0
  1  6  1  0
  2  3  1  0
  3  4  2  0
  4  5  1  0
  4  7  1  0
  5  6  2  0
  7  8  1  0
  7 15  2  0
  8  9  2  0
  8 13  1  0
  9 10  1  0
 10 11  2  0
 11 12  1  0
 11 14  1  0
 12 13  2  0
 14 16  2  0
 14 17  1  0
  1 18  1  0
  2 19  1  0
  3 20  1  0
  5 21  1  0
  6 22  1  0
  9 23  1  0
 10 24  1  0
 12 25  1  0
 13 26  1  0
M  CHG  1  17  -1
M  END
>  <filename_input>  (8) 
8D39_QDB_docked.sdf

>  <pdb_id>  (8) 
8D39_QDB

>  <pose_rank>  (8) 
7

>  <num_atoms_heavy>  (8) 
17

>  <num_torsions>  (8) 
3

>  <pose>  (8) 
[3.455258093995451, 1.1895691609224257, 19.428414496466573, -5.0024273014886615, -24.285769090662484, 13.747778620146523, -0.07433794964632034, 3.0388324636507646, 3.689631568896522]

>  <energy>  (8) 
-781.4307303397783

>  <inter_energy>  (8) 
-783.243765921637

>  <intra_energy>  (8) 
2.2741655663057654

>  <rmsd>  (8) 
0.71669

>  <sdf_rank>  (8) 
0

$$$$

     RDKit          3D

 26 27  0  0  0  0  0  0  0  0999 V2000
    1.9934   -0.6946   23.2727 C   0  0  0  0  0  0  0  0  0  0  0  0
    1.8388   -1.6426   22.2696 C   0  0  0  0  0  0  0  0  0  0  0  0
    2.4711   -1.4908   21.0382 C   0  0  0  0  0  0  0  0  0  0  0  0
    3.2750   -0.3903   20.7654 C   0  0  0  0  0  0  0  0  0  0  0  0
    3.3939    0.5565   21.7942 C   0  0  0  0  0  0  0  0  0  0  0  0
    2.7689    0.4090   23.0197 C   0  0  0  0  0  0  0  0  0  0  0  0
    3.9824   -0.1757   19.4443 C   0  0  0  0  0  0  0  0  0  0  0  0
    4.0983    1.1506   18.8342 C   0  0  0  0  0  0  0  0  0  0  0  0
    5.1442    2.0193   19.1611 C   0  0  0  0  0  0  0  0  0  0  0  0
    5.2236    3.2869   18.6409 C   0  0  0  0  0  0  0  0  0  0  0  0
    4.2346    3.7612   17.7914 C   0  0  0  0  0  0  0  0  0  0  0  0
    3.1881    2.9139   17.4751 C   0  0  0  0  0  0  0  0  0  0  0  0
    3.1192    1.6455   17.9916 C   0  0  0  0  0  0  0  0  0  0  0  0
    4.2590    5.1717   17.2507 C   0  0  0  0  0  0  0  0  0  0  0  0
    4.3790   -1.1756   18.8814 O   0  0  0  0  0  0  0  0  0  0  0  0
    5.2784    5.8125   17.5429 O   0  0  0  0  0  0  0  0  0  0  0  0
    3.3350    5.5302   16.4923 O   0  0  0  0  0  0  0  0  0  0  0  0
    1.5045   -0.8255   24.2493 H   0  0  0  0  0  0  0  0  0  0  0  0
    1.2083   -2.5257   22.4504 H   0  0  0  0  0  0  0  0  0  0  0  0
    2.3310   -2.2593   20.2637 H   0  0  0  0  0  0  0  0  0  0  0  0
    4.0087    1.4518   21.6193 H   0  0  0  0  0  0  0  0  0  0  0  0
    2.8941    1.1796   23.7946 H   0  0  0  0  0  0  0  0  0  0  0  0
    5.9258    1.6769   19.8552 H   0  0  0  0  0  0  0  0  0  0  0  0
    6.0770    3.9310   18.8993 H   0  0  0  0  0  0  0  0  0  0  0  0
    2.3964    3.2641   16.7965 H   0  0  0  0  0  0  0  0  0  0  0  0
    2.2638    1.0055   17.7294 H   0  0  0  0  0  0  0  0  0  0  0  0
  1  2  2  0
  1  6  1  0
  2  3  1  0
  3  4  2  0
  4  5  1  0
  4  7  1  0
  5  6  2  0
  7  8  1  0
  7 15  2  0
  8  9  2  0
  8 13  1  0
  9 10  1  0
 10 11  2  0
 11 12  1  0
 11 14  1  0
 12 13  2  0
 14 16  2  0
 14 17  1  0
  1 18  1  0
  2 19  1  0
  3 20  1  0
  5 21  1  0
  6 22  1  0
  9 23  1  0
 10 24  1  0
 12 25  1  0
 13 26  1  0
M  CHG  1  17  -1
M  END
>  <filename_input>  (9) 
8D39_QDB_docked.sdf

>  <pdb_id>  (9) 
8D39_QDB

>  <pose_rank>  (9) 
8

>  <num_atoms_heavy>  (9) 
17

>  <num_torsions>  (9) 
3

>  <pose>  (9) 
[4.0983077877095315, 1.1505997159983106, 18.83415128603145, 0.057194742105296646, 0.23902272841094171, -0.0030932070820865656, 2.922417821368166, 25.65847266622616, -6.991769350187851]

>  <energy>  (9) 
-987.5171736647926

>  <inter_energy>  (9) 
-984.8808724358829

>  <intra_energy>  (9) 
3.0014956753590636

>  <rmsd>  (9) 
0.529174

>  <sdf_rank>  (9) 
0

$$$$

     RDKit          3D

 26 27  0  0  0  0  0  0  0  0999 V2000
    3.8675   -3.0635   20.5248 C   0  0  0  0  0  0  0  0  0  0  0  0
    3.0942   -2.5752   21.5700 C   0  0  0  0  0  0  0  0  0  0  0  0
    2.7629   -1.2247   21.6445 C   0  0  0  0  0  0  0  0  0  0  0  0
    3.1920   -0.3176   20.6829 C   0  0  0  0  0  0  0  0  0  0  0  0
    3.9864   -0.8417   19.6517 C   0  0  0  0  0  0  0  0  0  0  0  0
    4.3168   -2.1830   19.5729 C   0  0  0  0  0  0  0  0  0  0  0  0
    2.8625    1.1596   20.7176 C   0  0  0  0  0  0  0  0  0  0  0  0
    3.3992    2.0964   19.7280 C   0  0  0  0  0  0  0  0  0  0  0  0
    4.3227    3.0856   20.0800 C   0  0  0  0  0  0  0  0  0  0  0  0
    4.7813    4.0061   19.1712 C   0  0  0  0  0  0  0  0  0  0  0  0
    4.3073    4.0028   17.8673 C   0  0  0  0  0  0  0  0  0  0  0  0
    3.3817    3.0375   17.5147 C   0  0  0  0  0  0  0  0  0  0  0  0
    2.9339    2.1153   18.4254 C   0  0  0  0  0  0  0  0  0  0  0  0
    4.7442    5.0395   16.8590 C   0  0  0  0  0  0  0  0  0  0  0  0
    2.1925    1.5363   21.6574 O   0  0  0  0  0  0  0  0  0  0  0  0
    4.3893    4.8016   15.6960 O   0  0  0  0  0  0  0  0  0  0  0  0
    5.3140    6.0680   17.2776 O   0  0  0  0  0  0  0  0  0  0  0  0
    4.1146   -4.1335   20.4613 H   0  0  0  0  0  0  0  0  0  0  0  0
    2.7386   -3.2647   22.3498 H   0  0  0  0  0  0  0  0  0  0  0  0
    2.1475   -0.8677   22.4834 H   0  0  0  0  0  0  0  0  0  0  0  0
    4.3614   -0.1590   18.8750 H   0  0  0  0  0  0  0  0  0  0  0  0
    4.9423   -2.5451   18.7437 H   0  0  0  0  0  0  0  0  0  0  0  0
    4.6924    3.1272   21.1152 H   0  0  0  0  0  0  0  0  0  0  0  0
    5.5296    4.7514   19.4786 H   0  0  0  0  0  0  0  0  0  0  0  0
    2.9975    3.0090   16.4843 H   0  0  0  0  0  0  0  0  0  0  0  0
    2.1860    1.3719   18.1124 H   0  0  0  0  0  0  0  0  0  0  0  0
  1  2  2  0
  1  6  1  0
  2  3  1  0
  3  4  2  0
  4  5  1  0
  4  7  1  0
  5  6  2  0
  7  8  1  0
  7 15  2  0
  8  9  2  0
  8 13  1  0
  9 10  1  0
 10 11  2  0
 11 12  1  0
 11 14  1  0
 12 13  2  0
 14 16  2  0
 14 17  1  0
  1 18  1  0
  2 19  1  0
  3 20  1  0
  5 21  1  0
  6 22  1  0
  9 23  1  0
 10 24  1  0
 12 25  1  0
 13 26  1  0
M  CHG  1  17  -1
M  END
>  <filename_input>  (10) 
8D39_QDB_docked.sdf

>  <pdb_id>  (10) 
8D39_QDB

>  <pose_rank>  (10) 
9

>  <num_atoms_heavy>  (10) 
17

>  <num_torsions>  (10) 
3

>  <pose>  (10) 
[3.3991681488006313, 2.096419309280176, 19.727970067979275, -0.3871759047386131, -0.21955543500750363, -0.08175788433327537, -0.4842642604421052, 28.47048128351903, 6.1856804618191505]

>  <energy>  (10) 
-736.9200547186718

>  <inter_energy>  (10) 
-750.5299779367016

>  <intra_energy>  (10) 
5.553176587309912

>  <rmsd>  (10) 
2.24738

>  <sdf_rank>  (10) 
0

$$$$

     RDKit          3D

 26 27  0  0  0  0  0  0  0  0999 V2000
    1.3257   -1.9283   21.8893 C   0  0  0  0  0  0  0  0  0  0  0  0
    2.2026   -2.1500   20.8354 C   0  0  0  0  0  0  0  0  0  0  0  0
    3.1772   -1.2114   20.5062 C   0  0  0  0  0  0  0  0  0  0  0  0
    3.3086   -0.0223   21.2135 C   0  0  0  0  0  0  0  0  0  0  0  0
    2.3947    0.1772   22.2595 C   0  0  0  0  0  0  0  0  0  0  0  0
    1.4258   -0.7532   22.5911 C   0  0  0  0  0  0  0  0  0  0  0  0
    4.3480    1.0316   20.8961 C   0  0  0  0  0  0  0  0  0  0  0  0
    4.1886    1.9650   19.7788 C   0  0  0  0  0  0  0  0  0  0  0  0
    3.2910    1.7143   18.7362 C   0  0  0  0  0  0  0  0  0  0  0  0
    3.1825    2.5529   17.6553 C   0  0  0  0  0  0  0  0  0  0  0  0
    3.9978    3.6704   17.5480 C   0  0  0  0  0  0  0  0  0  0  0  0
    4.8995    3.9173   18.5673 C   0  0  0  0  0  0  0  0  0  0  0  0
    4.9970    3.0799   19.6488 C   0  0  0  0  0  0  0  0  0  0  0  0
    3.9474    4.5795   16.3425 C   0  0  0  0  0  0  0  0  0  0  0  0
    5.3570    1.0080   21.5708 O   0  0  0  0  0  0  0  0  0  0  0  0
    3.6452    4.0086   15.2852 O   0  0  0  0  0  0  0  0  0  0  0  0
    4.1035    5.8051   16.5193 O   0  0  0  0  0  0  0  0  0  0  0  0
    0.5669   -2.6787   22.1559 H   0  0  0  0  0  0  0  0  0  0  0  0
    2.1262   -3.0799   20.2527 H   0  0  0  0  0  0  0  0  0  0  0  0
    3.8586   -1.4158   19.6671 H   0  0  0  0  0  0  0  0  0  0  0  0
    2.4508    1.1105   22.8389 H   0  0  0  0  0  0  0  0  0  0  0  0
    0.7327   -0.5502   23.4208 H   0  0  0  0  0  0  0  0  0  0  0  0
    2.6535    0.8191   18.7839 H   0  0  0  0  0  0  0  0  0  0  0  0
    2.4443    2.3377   16.8687 H   0  0  0  0  0  0  0  0  0  0  0  0
    5.5507    4.8019   18.5092 H   0  0  0  0  0  0  0  0  0  0  0  0
    5.7365    3.3003   20.4327 H   0  0  0  0  0  0  0  0  0  0  0  0
  1  2  2  0
  1  6  1  0
  2  3  1  0
  3  4  2  0
  4  5  1  0
  4  7  1  0
  5  6  2  0
  7  8  1  0
  7 15  2  0
  8  9  2  0
  8 13  1  0
  9 10  1  0
 10 11  2  0
 11 12  1  0
 11 14  1  0
 12 13  2  0
 14 16  2  0
 14 17  1  0
  1 18  1  0
  2 19  1  0
  3 20  1  0
  5 21  1  0
  6 22  1  0
  9 23  1  0
 10 24  1  0
 12 25  1  0
 13 26  1  0
M  CHG  1  17  -1
M  END
>  <filename_input>  (11) 
8D39_QDB_docked.sdf

>  <pdb_id>  (11) 
8D39_QDB

>  <pose_rank>  (11) 
10

>  <num_atoms_heavy>  (11) 
17

>  <num_torsions>  (11) 
3

>  <pose>  (11) 
[4.18859952626897, 1.9649530117569898, 19.77876506966866, -0.9750555887780432, -22.206800294868675, 17.5003067606619, 2.288936412314575, -1.3018606550845075, 4.470380817300353]

>  <energy>  (11) 
-727.2543747843382

>  <inter_energy>  (11) 
-723.791706972288

>  <intra_energy>  (11) 
4.301937825174793

>  <rmsd>  (11) 
1.71143

>  <sdf_rank>  (11) 
0

$$$$

     RDKit          3D

 26 27  0  0  0  0  0  0  0  0999 V2000
    4.3799   -2.9745   18.5349 C   0  0  0  0  0  0  0  0  0  0  0  0
    3.8251   -2.8102   19.7974 C   0  0  0  0  0  0  0  0  0  0  0  0
    3.3484   -1.5697   20.2134 C   0  0  0  0  0  0  0  0  0  0  0  0
    3.4104   -0.4537   19.3875 C   0  0  0  0  0  0  0  0  0  0  0  0
    3.9935   -0.6514   18.1265 C   0  0  0  0  0  0  0  0  0  0  0  0
    4.4671   -1.8824   17.7084 C   0  0  0  0  0  0  0  0  0  0  0  0
    2.9093    0.9167   19.7908 C   0  0  0  0  0  0  0  0  0  0  0  0
    3.4580    2.1441   19.2098 C   0  0  0  0  0  0  0  0  0  0  0  0
    3.0251    2.6259   17.9705 C   0  0  0  0  0  0  0  0  0  0  0  0
    3.5797    3.7399   17.3916 C   0  0  0  0  0  0  0  0  0  0  0  0
    4.6250    4.4081   18.0126 C   0  0  0  0  0  0  0  0  0  0  0  0
    5.0699    3.9290   19.2314 C   0  0  0  0  0  0  0  0  0  0  0  0
    4.5057    2.8203   19.8084 C   0  0  0  0  0  0  0  0  0  0  0  0
    5.2989    5.5999   17.3739 C   0  0  0  0  0  0  0  0  0  0  0  0
    2.0829    0.9438   20.6798 O   0  0  0  0  0  0  0  0  0  0  0  0
    6.3190    5.3233   16.7273 O   0  0  0  0  0  0  0  0  0  0  0  0
    4.7368    6.7112   17.4559 O   0  0  0  0  0  0  0  0  0  0  0  0
    4.7417   -3.9593   18.2042 H   0  0  0  0  0  0  0  0  0  0  0  0
    3.7615   -3.6719   20.4782 H   0  0  0  0  0  0  0  0  0  0  0  0
    2.9128   -1.4709   21.2187 H   0  0  0  0  0  0  0  0  0  0  0  0
    4.0775    0.2065   17.4432 H   0  0  0  0  0  0  0  0  0  0  0  0
    4.9155   -1.9861   16.7093 H   0  0  0  0  0  0  0  0  0  0  0  0
    2.2168    2.0969   17.4444 H   0  0  0  0  0  0  0  0  0  0  0  0
    3.1928    4.1053   16.4289 H   0  0  0  0  0  0  0  0  0  0  0  0
    5.8917    4.4470   19.7475 H   0  0  0  0  0  0  0  0  0  0  0  0
    4.8962    2.4596   20.7715 H   0  0  0  0  0  0  0  0  0  0  0  0
  1  2  2  0
  1  6  1  0
  2  3  1  0
  3  4  2  0
  4  5  1  0
  4  7  1  0
  5  6  2  0
  7  8  1  0
  7 15  2  0
  8  9  2  0
  8 13  1  0
  9 10  1  0
 10 11  2  0
 11 12  1  0
 11 14  1  0
 12 13  2  0
 14 16  2  0
 14 17  1  0
  1 18  1  0
  2 19  1  0
  3 20  1  0
  5 21  1  0
  6 22  1  0
  9 23  1  0
 10 24  1  0
 12 25  1  0
 13 26  1  0
M  CHG  1  17  -1
M  END
>  <filename_input>  (12) 
8D39_QDB_docked.sdf

>  <pdb_id>  (12) 
8D39_QDB

>  <pose_rank>  (12) 
11

>  <num_atoms_heavy>  (12) 
17

>  <num_torsions>  (12) 
3

>  <pose>  (12) 
[3.457971919115451, 2.144069322076763, 19.20980438246726, -0.8925031504585087, -2.765218413287029, 1.35227998044113, 1.1748978130037826, 0.4488247045886149, -0.49580891500879265]

>  <energy>  (12) 
-663.460353395845

>  <inter_energy>  (12) 
-660.347278173024

>  <intra_energy>  (12) 
4.310431144369444

>  <rmsd>  (12) 
2.86887

>  <sdf_rank>  (12) 
0

$$$$

     RDKit          3D

 26 27  0  0  0  0  0  0  0  0999 V2000
    2.6575   10.3993   25.3227 C   0  0  0  0  0  0  0  0  0  0  0  0
    2.6466    9.1255   25.8758 C   0  0  0  0  0  0  0  0  0  0  0  0
    3.6555    8.2106   25.5850 C   0  0  0  0  0  0  0  0  0  0  0  0
    4.7054    8.5337   24.7336 C   0  0  0  0  0  0  0  0  0  0  0  0
    4.6749    9.8220   24.1782 C   0  0  0  0  0  0  0  0  0  0  0  0
    3.6754   10.7346   24.4655 C   0  0  0  0  0  0  0  0  0  0  0  0
    5.8250    7.5770   24.3826 C   0  0  0  0  0  0  0  0  0  0  0  0
    7.0554    7.5011   25.1733 C   0  0  0  0  0  0  0  0  0  0  0  0
    8.1443    8.3403   24.9175 C   0  0  0  0  0  0  0  0  0  0  0  0
    9.3226    8.2318   25.6128 C   0  0  0  0  0  0  0  0  0  0  0  0
    9.4807    7.2485   26.5787 C   0  0  0  0  0  0  0  0  0  0  0  0
    8.4140    6.4039   26.8271 C   0  0  0  0  0  0  0  0  0  0  0  0
    7.2364    6.5232   26.1347 C   0  0  0  0  0  0  0  0  0  0  0  0
   10.7847    7.0619   27.3183 C   0  0  0  0  0  0  0  0  0  0  0  0
    5.6785    6.9329   23.3640 O   0  0  0  0  0  0  0  0  0  0  0  0
   10.9666    5.9150   27.7505 O   0  0  0  0  0  0  0  0  0  0  0  0
   11.5925    8.0130   27.3419 O   0  0  0  0  0  0  0  0  0  0  0  0
    1.8670   11.1242   25.5666 H   0  0  0  0  0  0  0  0  0  0  0  0
    1.8298    8.8351   26.5530 H   0  0  0  0  0  0  0  0  0  0  0  0
    3.6206    7.2096   26.0396 H   0  0  0  0  0  0  0  0  0  0  0  0
    5.4776   10.1181   23.4869 H   0  0  0  0  0  0  0  0  0  0  0  0
    3.6968   11.7333   24.0048 H   0  0  0  0  0  0  0  0  0  0  0  0
    8.0539    9.1096   24.1365 H   0  0  0  0  0  0  0  0  0  0  0  0
   10.1471    8.9290   25.4028 H   0  0  0  0  0  0  0  0  0  0  0  0
    8.5121    5.6220   27.5945 H   0  0  0  0  0  0  0  0  0  0  0  0
    6.4150    5.8236   26.3492 H   0  0  0  0  0  0  0  0  0  0  0  0
  1  2  2  0
  1  6  1  0
  2  3  1  0
  3  4  2  0
  4  5  1  0
  4  7  1  0
  5  6  2  0
  7  8  1  0
  7 15  2  0
  8  9  2  0
  8 13  1  0
  9 10  1  0
 10 11  2  0
 11 12  1  0
 11 14  1  0
 12 13  2  0
 14 16  2  0
 14 17  1  0
  1 18  1  0
  2 19  1  0
  3 20  1  0
  5 21  1  0
  6 22  1  0
  9 23  1  0
 10 24  1  0
 12 25  1  0
 13 26  1  0
M  CHG  1  17  -1
M  END
>  <filename_input>  (13) 
8D39_QDB_docked.sdf

>  <pdb_id>  (13) 
8D39_QDB

>  <pose_rank>  (13) 
12

>  <num_atoms_heavy>  (13) 
17

>  <num_torsions>  (13) 
3

>  <pose>  (13) 
[7.055410790858767, 7.501129683381794, 25.173305966060607, 2.4252710150164596, 2.0444822343540845, 0.3115499590144987, 0.13108235491809261, -2.502123709824025, 1.5386504741881224]

>  <energy>  (13) 
-235.32211691881142

>  <inter_energy>  (13) 
-199.78262554781048

>  <intra_energy>  (13) 
0.0

>  <rmsd>  (13) 
10.4968

>  <sdf_rank>  (13) 
0

$$$$

     RDKit          3D

 26 27  0  0  0  0  0  0  0  0999 V2000
    1.5684   10.8434   25.1301 C   0  0  0  0  0  0  0  0  0  0  0  0
    2.9371   11.0739   25.1800 C   0  0  0  0  0  0  0  0  0  0  0  0
    3.8285   10.0353   25.4367 C   0  0  0  0  0  0  0  0  0  0  0  0
    3.3863    8.7357   25.6538 C   0  0  0  0  0  0  0  0  0  0  0  0
    1.9970    8.5424   25.6147 C   0  0  0  0  0  0  0  0  0  0  0  0
    1.1077    9.5711   25.3585 C   0  0  0  0  0  0  0  0  0  0  0  0
    4.3115    7.5719   25.9390 C   0  0  0  0  0  0  0  0  0  0  0  0
    5.7139    7.5757   25.5167 C   0  0  0  0  0  0  0  0  0  0  0  0
    6.1250    6.9543   24.3334 C   0  0  0  0  0  0  0  0  0  0  0  0
    7.4456    6.8996   23.9639 C   0  0  0  0  0  0  0  0  0  0  0  0
    8.4277    7.4362   24.7840 C   0  0  0  0  0  0  0  0  0  0  0  0
    8.0312    8.0389   25.9640 C   0  0  0  0  0  0  0  0  0  0  0  0
    6.7091    8.0977   26.3232 C   0  0  0  0  0  0  0  0  0  0  0  0
    9.8949    7.3383   24.4374 C   0  0  0  0  0  0  0  0  0  0  0  0
    3.8054    6.6032   26.4675 O   0  0  0  0  0  0  0  0  0  0  0  0
   10.5196    6.4949   25.0960 O   0  0  0  0  0  0  0  0  0  0  0  0
   10.3222    8.0131   23.4784 O   0  0  0  0  0  0  0  0  0  0  0  0
    0.8684   11.6635   24.9122 H   0  0  0  0  0  0  0  0  0  0  0  0
    3.3222   12.0909   25.0144 H   0  0  0  0  0  0  0  0  0  0  0  0
    4.9072   10.2483   25.4684 H   0  0  0  0  0  0  0  0  0  0  0  0
    1.5990    7.5329   25.7949 H   0  0  0  0  0  0  0  0  0  0  0  0
    0.0268    9.3680   25.3377 H   0  0  0  0  0  0  0  0  0  0  0  0
    5.3681    6.4960   23.6798 H   0  0  0  0  0  0  0  0  0  0  0  0
    7.7274    6.4272   23.0113 H   0  0  0  0  0  0  0  0  0  0  0  0
    8.7906    8.4795   26.6267 H   0  0  0  0  0  0  0  0  0  0  0  0
    6.4330    8.5718   27.2767 H   0  0  0  0  0  0  0  0  0  0  0  0
  1  2  2  0
  1  6  1  0
  2  3  1  0
  3  4  2  0
  4  5  1  0
  4  7  1  0
  5  6  2  0
  7  8  1  0
  7 15  2  0
  8  9  2  0
  8 13  1  0
  9 10  1  0
 10 11  2  0
 11 12  1  0
 11 14  1  0
 12 13  2  0
 14 16  2  0
 14 17  1  0
  1 18  1  0
  2 19  1  0
  3 20  1  0
  5 21  1  0
  6 22  1  0
  9 23  1  0
 10 24  1  0
 12 25  1  0
 13 26  1  0
M  CHG  1  17  -1
M  END
>  <filename_input>  (14) 
8D39_QDB_docked.sdf

>  <pdb_id>  (14) 
8D39_QDB

>  <pose_rank>  (14) 
13

>  <num_atoms_heavy>  (14) 
17

>  <num_torsions>  (14) 
3

>  <pose>  (14) 
[5.713879509679081, 7.575688000347072, 25.516673646059804, -2.3415614499460973, -1.6945605319939303, 2.2460313813338835, 1.0065215701426864, -2.6724679527567785, 2.68727947804378]

>  <energy>  (14) 
-189.6819194973593

>  <inter_energy>  (14) 
-177.92943114693324

>  <intra_energy>  (14) 
1.4125174908292601

>  <rmsd>  (14) 
9.84898

>  <sdf_rank>  (14) 
0

$$$$

     RDKit          3D

 26 27  0  0  0  0  0  0  0  0999 V2000
   13.0859    7.3227   26.0408 C   0  0  0  0  0  0  0  0  0  0  0  0
   12.1793    8.3456   25.7947 C   0  0  0  0  0  0  0  0  0  0  0  0
   10.8077    8.1238   25.8882 C   0  0  0  0  0  0  0  0  0  0  0  0
   10.2952    6.8772   26.2273 C   0  0  0  0  0  0  0  0  0  0  0  0
   11.2385    5.8626   26.4508 C   0  0  0  0  0  0  0  0  0  0  0  0
   12.6021    6.0789   26.3606 C   0  0  0  0  0  0  0  0  0  0  0  0
    8.8147    6.5819   26.3403 C   0  0  0  0  0  0  0  0  0  0  0  0
    7.8068    7.4080   25.6718 C   0  0  0  0  0  0  0  0  0  0  0  0
    7.2342    8.5181   26.3005 C   0  0  0  0  0  0  0  0  0  0  0  0
    6.2442    9.2585   25.7044 C   0  0  0  0  0  0  0  0  0  0  0  0
    5.7519    8.8996   24.4579 C   0  0  0  0  0  0  0  0  0  0  0  0
    6.3019    7.7935   23.8358 C   0  0  0  0  0  0  0  0  0  0  0  0
    7.2968    7.0629   24.4332 C   0  0  0  0  0  0  0  0  0  0  0  0
    4.6207    9.6555   23.8012 C   0  0  0  0  0  0  0  0  0  0  0  0
    8.5061    5.6697   27.0796 O   0  0  0  0  0  0  0  0  0  0  0  0
    4.5283    9.4750   22.5789 O   0  0  0  0  0  0  0  0  0  0  0  0
    3.8337   10.2929   24.5305 O   0  0  0  0  0  0  0  0  0  0  0  0
   14.1689    7.5056   25.9807 H   0  0  0  0  0  0  0  0  0  0  0  0
   12.5498    9.3449   25.5222 H   0  0  0  0  0  0  0  0  0  0  0  0
   10.1142    8.9540   25.6891 H   0  0  0  0  0  0  0  0  0  0  0  0
   10.8795    4.8552   26.7080 H   0  0  0  0  0  0  0  0  0  0  0  0
   13.3015    5.2504   26.5459 H   0  0  0  0  0  0  0  0  0  0  0  0
    7.5873    8.8062   27.3016 H   0  0  0  0  0  0  0  0  0  0  0  0
    5.8384   10.1423   26.2183 H   0  0  0  0  0  0  0  0  0  0  0  0
    5.9343    7.4942   22.8431 H   0  0  0  0  0  0  0  0  0  0  0  0
    7.6993    6.1804   23.9145 H   0  0  0  0  0  0  0  0  0  0  0  0
  1  2  2  0
  1  6  1  0
  2  3  1  0
  3  4  2  0
  4  5  1  0
  4  7  1  0
  5  6  2  0
  7  8  1  0
  7 15  2  0
  8  9  2  0
  8 13  1  0
  9 10  1  0
 10 11  2  0
 11 12  1  0
 11 14  1  0
 12 13  2  0
 14 16  2  0
 14 17  1  0
  1 18  1  0
  2 19  1  0
  3 20  1  0
  5 21  1  0
  6 22  1  0
  9 23  1  0
 10 24  1  0
 12 25  1  0
 13 26  1  0
M  CHG  1  17  -1
M  END
>  <filename_input>  (15) 
8D39_QDB_docked.sdf

>  <pdb_id>  (15) 
8D39_QDB

>  <pose_rank>  (15) 
14

>  <num_atoms_heavy>  (15) 
17

>  <num_torsions>  (15) 
3

>  <pose>  (15) 
[7.806825478826434, 7.407979869390704, 25.671844669806514, -0.23822822603744864, 0.95473839053854, -4.973740191440534, -0.6423608512243286, -2.5577511610053043, 3.4874754113707773]

>  <energy>  (15) 
-218.72545986299306

>  <inter_energy>  (15) 
-202.6903878812981

>  <intra_energy>  (15) 
0.9849118600135437

>  <rmsd>  (15) 
10.4487

>  <sdf_rank>  (15) 
0

$$$$

     RDKit          3D

 26 27  0  0  0  0  0  0  0  0999 V2000
   10.8408   -2.9215   10.8194 C   0  0  0  0  0  0  0  0  0  0  0  0
   10.1206   -1.9397   11.4872 C   0  0  0  0  0  0  0  0  0  0  0  0
   10.7539   -1.0533   12.3547 C   0  0  0  0  0  0  0  0  0  0  0  0
   12.1227   -1.1172   12.5864 C   0  0  0  0  0  0  0  0  0  0  0  0
   12.8159   -2.1325   11.9099 C   0  0  0  0  0  0  0  0  0  0  0  0
   12.1911   -3.0144   11.0460 C   0  0  0  0  0  0  0  0  0  0  0  0
   12.8596   -0.1807   13.5201 C   0  0  0  0  0  0  0  0  0  0  0  0
   12.8818   -0.3908   14.9694 C   0  0  0  0  0  0  0  0  0  0  0  0
   12.0191   -1.2982   15.5920 C   0  0  0  0  0  0  0  0  0  0  0  0
   11.9911   -1.4537   16.9553 C   0  0  0  0  0  0  0  0  0  0  0  0
   12.8050   -0.6779   17.7681 C   0  0  0  0  0  0  0  0  0  0  0  0
   13.6502    0.2333   17.1613 C   0  0  0  0  0  0  0  0  0  0  0  0
   13.6794    0.3778   15.7979 C   0  0  0  0  0  0  0  0  0  0  0  0
   12.7545   -0.7798   19.2745 C   0  0  0  0  0  0  0  0  0  0  0  0
   13.3646    0.7974   13.0079 O   0  0  0  0  0  0  0  0  0  0  0  0
   11.8193   -1.4672   19.7084 O   0  0  0  0  0  0  0  0  0  0  0  0
   13.6849   -0.2716   19.9331 O   0  0  0  0  0  0  0  0  0  0  0  0
   10.3395   -3.6103   10.1235 H   0  0  0  0  0  0  0  0  0  0  0  0
    9.0349   -1.8611   11.3288 H   0  0  0  0  0  0  0  0  0  0  0  0
   10.1571   -0.2850   12.8682 H   0  0  0  0  0  0  0  0  0  0  0  0
   13.8993   -2.2313   12.0729 H   0  0  0  0  0  0  0  0  0  0  0  0
   12.7792   -3.7933   10.5386 H   0  0  0  0  0  0  0  0  0  0  0  0
   11.3433   -1.9049   14.9713 H   0  0  0  0  0  0  0  0  0  0  0  0
   11.3190   -2.1984   17.4066 H   0  0  0  0  0  0  0  0  0  0  0  0
   14.3115    0.8538   17.7840 H   0  0  0  0  0  0  0  0  0  0  0  0
   14.3539    1.1236   15.3520 H   0  0  0  0  0  0  0  0  0  0  0  0
  1  2  2  0
  1  6  1  0
  2  3  1  0
  3  4  2  0
  4  5  1  0
  4  7  1  0
  5  6  2  0
  7  8  1  0
  7 15  2  0
  8  9  2  0
  8 13  1  0
  9 10  1  0
 10 11  2  0
 11 12  1  0
 11 14  1  0
 12 13  2  0
 14 16  2  0
 14 17  1  0
  1 18  1  0
  2 19  1  0
  3 20  1  0
  5 21  1  0
  6 22  1  0
  9 23  1  0
 10 24  1  0
 12 25  1  0
 13 26  1  0
M  CHG  1  17  -1
M  END
>  <filename_input>  (16) 
8D39_QDB_docked.sdf

>  <pdb_id>  (16) 
8D39_QDB

>  <pose_rank>  (16) 
15

>  <num_atoms_heavy>  (16) 
17

>  <num_torsions>  (16) 
3

>  <pose>  (16) 
[12.881815070644048, -0.39084547660311825, 14.9693696851808, 1.4924725623682868, -1.5498761027275771, -0.9423355817195687, -3.615963099957771, -1.2092055464058022, -1.7555187729841437]

>  <energy>  (16) 
-205.86851557336178

>  <inter_energy>  (16) 
-183.9815719134786

>  <intra_energy>  (16) 
2.9878431067881204

>  <rmsd>  (16) 
11.8116

>  <sdf_rank>  (16) 
0

$$$$

     RDKit          3D

 26 27  0  0  0  0  0  0  0  0999 V2000
    3.1056   11.4664   26.4741 C   0  0  0  0  0  0  0  0  0  0  0  0
    4.0546   11.2828   27.4713 C   0  0  0  0  0  0  0  0  0  0  0  0
    5.0878   10.3623   27.3148 C   0  0  0  0  0  0  0  0  0  0  0  0
    5.2080    9.5945   26.1625 C   0  0  0  0  0  0  0  0  0  0  0  0
    4.2219    9.7924   25.1841 C   0  0  0  0  0  0  0  0  0  0  0  0
    3.1945   10.7068   25.3346 C   0  0  0  0  0  0  0  0  0  0  0  0
    6.3092    8.5792   25.9427 C   0  0  0  0  0  0  0  0  0  0  0  0
    7.6111    8.9564   25.3878 C   0  0  0  0  0  0  0  0  0  0  0  0
    8.3724    8.0610   24.6302 C   0  0  0  0  0  0  0  0  0  0  0  0
    9.6203    8.3866   24.1609 C   0  0  0  0  0  0  0  0  0  0  0  0
   10.1842    9.6186   24.4596 C   0  0  0  0  0  0  0  0  0  0  0  0
    9.4443   10.5044   25.2217 C   0  0  0  0  0  0  0  0  0  0  0  0
    8.1944   10.1760   25.6805 C   0  0  0  0  0  0  0  0  0  0  0  0
   11.5797    9.9848   24.0114 C   0  0  0  0  0  0  0  0  0  0  0  0
    6.0253    7.4226   26.1786 O   0  0  0  0  0  0  0  0  0  0  0  0
   12.4701    9.6853   24.8193 O   0  0  0  0  0  0  0  0  0  0  0  0
   11.7295   10.4451   22.8611 O   0  0  0  0  0  0  0  0  0  0  0  0
    2.2996   12.2052   26.5951 H   0  0  0  0  0  0  0  0  0  0  0  0
    3.9893   11.8726   28.3975 H   0  0  0  0  0  0  0  0  0  0  0  0
    5.8256   10.2402   28.1215 H   0  0  0  0  0  0  0  0  0  0  0  0
    4.2674    9.1967   24.2604 H   0  0  0  0  0  0  0  0  0  0  0  0
    2.4457   10.8255   24.5376 H   0  0  0  0  0  0  0  0  0  0  0  0
    7.9593    7.0670   24.4039 H   0  0  0  0  0  0  0  0  0  0  0  0
   10.1772    7.6661   23.5438 H   0  0  0  0  0  0  0  0  0  0  0  0
    9.8663   11.4908   25.4644 H   0  0  0  0  0  0  0  0  0  0  0  0
    7.6419   10.9005   26.2967 H   0  0  0  0  0  0  0  0  0  0  0  0
  1  2  2  0
  1  6  1  0
  2  3  1  0
  3  4  2  0
  4  5  1  0
  4  7  1  0
  5  6  2  0
  7  8  1  0
  7 15  2  0
  8  9  2  0
  8 13  1  0
  9 10  1  0
 10 11  2  0
 11 12  1  0
 11 14  1  0
 12 13  2  0
 14 16  2  0
 14 17  1  0
  1 18  1  0
  2 19  1  0
  3 20  1  0
  5 21  1  0
  6 22  1  0
  9 23  1  0
 10 24  1  0
 12 25  1  0
 13 26  1  0
M  CHG  1  17  -1
M  END
>  <filename_input>  (17) 
8D39_QDB_docked.sdf

>  <pdb_id>  (17) 
8D39_QDB

>  <pose_rank>  (17) 
16

>  <num_atoms_heavy>  (17) 
17

>  <num_torsions>  (17) 
3

>  <pose>  (17) 
[7.61105652509375, 8.956360537196774, 25.387799619794368, -2.0464422574256256, -2.0348322056439305, 3.1547833988926115, 1.2542557779544676, 2.6780567471659267, 1.5997296575720572]

>  <energy>  (17) 
-197.14168711118413

>  <inter_energy>  (17) 
-177.01195195582946

>  <intra_energy>  (17) 
2.4332783632994497

>  <rmsd>  (17) 
11.1825

>  <sdf_rank>  (17) 
0

$$$$

     RDKit          3D

 26 27  0  0  0  0  0  0  0  0999 V2000
   12.6635   -4.7348   10.4324 C   0  0  0  0  0  0  0  0  0  0  0  0
   13.6980   -4.3877   11.2914 C   0  0  0  0  0  0  0  0  0  0  0  0
   13.6207   -3.2409   12.0776 C   0  0  0  0  0  0  0  0  0  0  0  0
   12.5130   -2.4027   12.0324 C   0  0  0  0  0  0  0  0  0  0  0  0
   11.4952   -2.7735   11.1404 C   0  0  0  0  0  0  0  0  0  0  0  0
   11.5671   -3.9128   10.3585 C   0  0  0  0  0  0  0  0  0  0  0  0
   12.3795   -1.1442   12.8631 C   0  0  0  0  0  0  0  0  0  0  0  0
   12.4128   -1.1751   14.3270 C   0  0  0  0  0  0  0  0  0  0  0  0
   13.5477   -0.7818   15.0431 C   0  0  0  0  0  0  0  0  0  0  0  0
   13.6077   -0.8681   16.4115 C   0  0  0  0  0  0  0  0  0  0  0  0
   12.5416   -1.3890   17.1303 C   0  0  0  0  0  0  0  0  0  0  0  0
   11.4211   -1.7952   16.4286 C   0  0  0  0  0  0  0  0  0  0  0  0
   11.3642   -1.6984   15.0618 C   0  0  0  0  0  0  0  0  0  0  0  0
   12.5989   -1.5555   18.6308 C   0  0  0  0  0  0  0  0  0  0  0  0
   12.1643   -0.1187   12.2498 O   0  0  0  0  0  0  0  0  0  0  0  0
   13.2159   -0.6573   19.2206 O   0  0  0  0  0  0  0  0  0  0  0  0
   11.9541   -2.4911   19.1469 O   0  0  0  0  0  0  0  0  0  0  0  0
   12.7216   -5.6495    9.8241 H   0  0  0  0  0  0  0  0  0  0  0  0
   14.5909   -5.0274   11.3517 H   0  0  0  0  0  0  0  0  0  0  0  0
   14.4554   -2.9927   12.7498 H   0  0  0  0  0  0  0  0  0  0  0  0
   10.6047   -2.1328   11.0595 H   0  0  0  0  0  0  0  0  0  0  0  0
   10.7419   -4.1606    9.6747 H   0  0  0  0  0  0  0  0  0  0  0  0
   14.4173   -0.3919   14.4938 H   0  0  0  0  0  0  0  0  0  0  0  0
   14.5071   -0.5219   16.9418 H   0  0  0  0  0  0  0  0  0  0  0  0
   10.5594   -2.2034   16.9770 H   0  0  0  0  0  0  0  0  0  0  0  0
   10.4621   -2.0455   14.5367 H   0  0  0  0  0  0  0  0  0  0  0  0
  1  2  2  0
  1  6  1  0
  2  3  1  0
  3  4  2  0
  4  5  1  0
  4  7  1  0
  5  6  2  0
  7  8  1  0
  7 15  2  0
  8  9  2  0
  8 13  1  0
  9 10  1  0
 10 11  2  0
 11 12  1  0
 11 14  1  0
 12 13  2  0
 14 16  2  0
 14 17  1  0
  1 18  1  0
  2 19  1  0
  3 20  1  0
  5 21  1  0
  6 22  1  0
  9 23  1  0
 10 24  1  0
 12 25  1  0
 13 26  1  0
M  CHG  1  17  -1
M  END
>  <filename_input>  (18) 
8D39_QDB_docked.sdf

>  <pdb_id>  (18) 
8D39_QDB

>  <pose_rank>  (18) 
17

>  <num_atoms_heavy>  (18) 
17

>  <num_torsions>  (18) 
3

>  <pose>  (18) 
[12.412819503705359, -1.1751234522791836, 14.326966056230326, 1.891721743636018, 1.0793879855332327, 0.8838209981269645, 3.4578317784398314, -11.748303887903132, 8.348960337048771]

>  <energy>  (18) 
-147.99011694674047

>  <inter_energy>  (18) 
-151.19677703744233

>  <intra_energy>  (18) 
0.0

>  <rmsd>  (18) 
12.42

>  <sdf_rank>  (18) 
0

$$$$

     RDKit          3D

 26 27  0  0  0  0  0  0  0  0999 V2000
   11.8604   -1.8233   10.3843 C   0  0  0  0  0  0  0  0  0  0  0  0
   11.3547   -3.0904   10.6442 C   0  0  0  0  0  0  0  0  0  0  0  0
   11.0770   -3.4964   11.9471 C   0  0  0  0  0  0  0  0  0  0  0  0
   11.2956   -2.6555   13.0319 C   0  0  0  0  0  0  0  0  0  0  0  0
   11.8244   -1.3902   12.7346 C   0  0  0  0  0  0  0  0  0  0  0  0
   12.1003   -0.9821   11.4416 C   0  0  0  0  0  0  0  0  0  0  0  0
   11.0134   -3.0475   14.4667 C   0  0  0  0  0  0  0  0  0  0  0  0
   11.4996   -2.2527   15.5967 C   0  0  0  0  0  0  0  0  0  0  0  0
   10.6453   -1.4264   16.3335 C   0  0  0  0  0  0  0  0  0  0  0  0
   11.1062   -0.6315   17.3528 C   0  0  0  0  0  0  0  0  0  0  0  0
   12.4583   -0.5983   17.6618 C   0  0  0  0  0  0  0  0  0  0  0  0
   13.3127   -1.4008   16.9277 C   0  0  0  0  0  0  0  0  0  0  0  0
   12.8444   -2.1993   15.9159 C   0  0  0  0  0  0  0  0  0  0  0  0
   13.0072    0.3113   18.7359 C   0  0  0  0  0  0  0  0  0  0  0  0
   10.4293   -4.0993   14.6288 O   0  0  0  0  0  0  0  0  0  0  0  0
   12.6989   -0.0179   19.8900 O   0  0  0  0  0  0  0  0  0  0  0  0
   13.7859    1.2253   18.3956 O   0  0  0  0  0  0  0  0  0  0  0  0
   12.0643   -1.5009    9.3526 H   0  0  0  0  0  0  0  0  0  0  0  0
   11.1709   -3.7828    9.8095 H   0  0  0  0  0  0  0  0  0  0  0  0
   10.6756   -4.5055   12.1216 H   0  0  0  0  0  0  0  0  0  0  0  0
   12.0276   -0.6950   13.5625 H   0  0  0  0  0  0  0  0  0  0  0  0
   12.5138    0.0211   11.2604 H   0  0  0  0  0  0  0  0  0  0  0  0
    9.5729   -1.4132   16.0889 H   0  0  0  0  0  0  0  0  0  0  0  0
   10.3989   -0.0165   17.9286 H   0  0  0  0  0  0  0  0  0  0  0  0
   14.3880   -1.3985   17.1597 H   0  0  0  0  0  0  0  0  0  0  0  0
   13.5561   -2.8126   15.3438 H   0  0  0  0  0  0  0  0  0  0  0  0
  1  2  2  0
  1  6  1  0
  2  3  1  0
  3  4  2  0
  4  5  1  0
  4  7  1  0
  5  6  2  0
  7  8  1  0
  7 15  2  0
  8  9  2  0
  8 13  1  0
  9 10  1  0
 10 11  2  0
 11 12  1  0
 11 14  1  0
 12 13  2  0
 14 16  2  0
 14 17  1  0
  1 18  1  0
  2 19  1  0
  3 20  1  0
  5 21  1  0
  6 22  1  0
  9 23  1  0
 10 24  1  0
 12 25  1  0
 13 26  1  0
M  CHG  1  17  -1
M  END
>  <filename_input>  (19) 
8D39_QDB_docked.sdf

>  <pdb_id>  (19) 
8D39_QDB

>  <pose_rank>  (19) 
18

>  <num_atoms_heavy>  (19) 
17

>  <num_torsions>  (19) 
3

>  <pose>  (19) 
[11.499566039262158, -2.2527477451758586, 15.596714057609434, 0.009374611574403812, -2.2727101724649184, -0.6383950616522808, -2.226075224855075, 0.8422423353085262, -0.2520623310385848]

>  <energy>  (19) 
-170.8425282330952

>  <inter_energy>  (19) 
-157.86235440221898

>  <intra_energy>  (19) 
3.9485382596447063

>  <rmsd>  (19) 
11.3873

>  <sdf_rank>  (19) 
0

$$$$

     RDKit          3D

 26 27  0  0  0  0  0  0  0  0999 V2000
   -5.9839    6.5727   17.8657 C   0  0  0  0  0  0  0  0  0  0  0  0
   -5.4317    7.6539   18.5402 C   0  0  0  0  0  0  0  0  0  0  0  0
   -5.1200    7.5685   19.8948 C   0  0  0  0  0  0  0  0  0  0  0  0
   -5.3498    6.4059   20.6210 C   0  0  0  0  0  0  0  0  0  0  0  0
   -5.9255    5.3401   19.9127 C   0  0  0  0  0  0  0  0  0  0  0  0
   -6.2354    5.4200   18.5665 C   0  0  0  0  0  0  0  0  0  0  0  0
   -5.0320    6.2610   22.0940 C   0  0  0  0  0  0  0  0  0  0  0  0
   -4.4124    7.3425   22.8629 C   0  0  0  0  0  0  0  0  0  0  0  0
   -3.0568    7.3154   23.2053 C   0  0  0  0  0  0  0  0  0  0  0  0
   -2.4846    8.2939   23.9790 C   0  0  0  0  0  0  0  0  0  0  0  0
   -3.2544    9.3338   24.4799 C   0  0  0  0  0  0  0  0  0  0  0  0
   -4.5995    9.3598   24.1590 C   0  0  0  0  0  0  0  0  0  0  0  0
   -5.1633    8.3835   23.3784 C   0  0  0  0  0  0  0  0  0  0  0  0
   -2.6695   10.3926   25.3850 C   0  0  0  0  0  0  0  0  0  0  0  0
   -5.2474    5.1707   22.5828 O   0  0  0  0  0  0  0  0  0  0  0  0
   -3.4455   10.8011   26.2603 O   0  0  0  0  0  0  0  0  0  0  0  0
   -1.4631   10.6836   25.2519 O   0  0  0  0  0  0  0  0  0  0  0  0
   -6.2148    6.6390   16.7922 H   0  0  0  0  0  0  0  0  0  0  0  0
   -5.2378    8.5905   17.9970 H   0  0  0  0  0  0  0  0  0  0  0  0
   -4.6821    8.4410   20.4016 H   0  0  0  0  0  0  0  0  0  0  0  0
   -6.1391    4.4038   20.4490 H   0  0  0  0  0  0  0  0  0  0  0  0
   -6.6852    4.5557   18.0559 H   0  0  0  0  0  0  0  0  0  0  0  0
   -2.4311    6.4859   22.8441 H   0  0  0  0  0  0  0  0  0  0  0  0
   -1.4085    8.2535   24.2034 H   0  0  0  0  0  0  0  0  0  0  0  0
   -5.2288   10.1790   24.5371 H   0  0  0  0  0  0  0  0  0  0  0  0
   -6.2398    8.4293   23.1567 H   0  0  0  0  0  0  0  0  0  0  0  0
  1  2  2  0
  1  6  1  0
  2  3  1  0
  3  4  2  0
  4  5  1  0
  4  7  1  0
  5  6  2  0
  7  8  1  0
  7 15  2  0
  8  9  2  0
  8 13  1  0
  9 10  1  0
 10 11  2  0
 11 12  1  0
 11 14  1  0
 12 13  2  0
 14 16  2  0
 14 17  1  0
  1 18  1  0
  2 19  1  0
  3 20  1  0
  5 21  1  0
  6 22  1  0
  9 23  1  0
 10 24  1  0
 12 25  1  0
 13 26  1  0
M  CHG  1  17  -1
M  END
>  <filename_input>  (20) 
8D39_QDB_docked.sdf

>  <pdb_id>  (20) 
8D39_QDB

>  <pose_rank>  (20) 
19

>  <num_atoms_heavy>  (20) 
17

>  <num_torsions>  (20) 
3

>  <pose>  (20) 
[-4.412351505443768, 7.342508255262775, 22.862852580015844, 1.2144451248735966, 0.5854092666451328, -0.22127384934153474, 0.2994406314137195, 3.4958963894912056, 3.075534992920743]

>  <energy>  (20) 
-169.53480664409156

>  <inter_energy>  (20) 
-149.88716515264565

>  <intra_energy>  (20) 
1.4787968628958161

>  <rmsd>  (20) 
11.4315

>  <sdf_rank>  (20) 
0

$$$$

     RDKit          3D

 26 27  0  0  0  0  0  0  0  0999 V2000
   12.7153   -2.1739   15.2390 C   0  0  0  0  0  0  0  0  0  0  0  0
   12.5397   -0.8635   15.6643 C   0  0  0  0  0  0  0  0  0  0  0  0
   12.4591   -0.5561   17.0201 C   0  0  0  0  0  0  0  0  0  0  0  0
   12.5484   -1.5427   17.9950 C   0  0  0  0  0  0  0  0  0  0  0  0
   12.7068   -2.8570   17.5295 C   0  0  0  0  0  0  0  0  0  0  0  0
   12.7890   -3.1668   16.1835 C   0  0  0  0  0  0  0  0  0  0  0  0
   12.4647   -1.2635   19.4805 C   0  0  0  0  0  0  0  0  0  0  0  0
   12.3741   -2.3417   20.4674 C   0  0  0  0  0  0  0  0  0  0  0  0
   13.4485   -2.6635   21.3026 C   0  0  0  0  0  0  0  0  0  0  0  0
   13.3919   -3.7130   22.1852 C   0  0  0  0  0  0  0  0  0  0  0  0
   12.2636   -4.5178   22.2489 C   0  0  0  0  0  0  0  0  0  0  0  0
   11.2021   -4.2161   21.4151 C   0  0  0  0  0  0  0  0  0  0  0  0
   11.2618   -3.1608   20.5415 C   0  0  0  0  0  0  0  0  0  0  0  0
   12.1924   -5.7175   23.1643 C   0  0  0  0  0  0  0  0  0  0  0  0
   12.3974   -0.0947   19.8021 O   0  0  0  0  0  0  0  0  0  0  0  0
   12.8626   -5.6090   24.2008 O   0  0  0  0  0  0  0  0  0  0  0  0
   11.4099   -6.6430   22.8663 O   0  0  0  0  0  0  0  0  0  0  0  0
   12.7936   -2.4109   14.1677 H   0  0  0  0  0  0  0  0  0  0  0  0
   12.4634   -0.0573   14.9198 H   0  0  0  0  0  0  0  0  0  0  0  0
   12.3215    0.4913   17.3265 H   0  0  0  0  0  0  0  0  0  0  0  0
   12.7681   -3.6735   18.2640 H   0  0  0  0  0  0  0  0  0  0  0  0
   12.9139   -4.2135   15.8691 H   0  0  0  0  0  0  0  0  0  0  0  0
   14.3654   -2.0580   21.2507 H   0  0  0  0  0  0  0  0  0  0  0  0
   14.2469   -3.9175   22.8464 H   0  0  0  0  0  0  0  0  0  0  0  0
   10.2930   -4.8342   21.4535 H   0  0  0  0  0  0  0  0  0  0  0  0
   10.4037   -2.9605   19.8830 H   0  0  0  0  0  0  0  0  0  0  0  0
  1  2  2  0
  1  6  1  0
  2  3  1  0
  3  4  2  0
  4  5  1  0
  4  7  1  0
  5  6  2  0
  7  8  1  0
  7 15  2  0
  8  9  2  0
  8 13  1  0
  9 10  1  0
 10 11  2  0
 11 12  1  0
 11 14  1  0
 12 13  2  0
 14 16  2  0
 14 17  1  0
  1 18  1  0
  2 19  1  0
  3 20  1  0
  5 21  1  0
  6 22  1  0
  9 23  1  0
 10 24  1  0
 12 25  1  0
 13 26  1  0
M  CHG  1  17  -1
M  END
>  <filename_input>  (21) 
8D39_QDB_docked.sdf

>  <pdb_id>  (21) 
8D39_QDB

>  <pose_rank>  (21) 
20

>  <num_atoms_heavy>  (21) 
17

>  <num_torsions>  (21) 
3

>  <pose>  (21) 
[12.37405790567706, -2.34172476666189, 20.4674479221238, -2.758589083437113, -0.740648909739074, -1.676397734528663, -2.9292283342205794, 0.9012254192063146, -0.18652120465949806]

>  <energy>  (21) 
-165.64562226727878

>  <inter_energy>  (21) 
-150.46378320982126

>  <intra_energy>  (21) 
5.954635940073642

>  <rmsd>  (21) 
11.8587

>  <sdf_rank>  (21) 
0

$$$$

     RDKit          3D

 26 27  0  0  0  0  0  0  0  0999 V2000
   -4.8168   10.1886   27.6149 C   0  0  0  0  0  0  0  0  0  0  0  0
   -3.8773    9.3557   28.2087 C   0  0  0  0  0  0  0  0  0  0  0  0
   -3.7402    8.0299   27.8053 C   0  0  0  0  0  0  0  0  0  0  0  0
   -4.5344    7.4908   26.8002 C   0  0  0  0  0  0  0  0  0  0  0  0
   -5.4851    8.3547   26.2354 C   0  0  0  0  0  0  0  0  0  0  0  0
   -5.6238    9.6730   26.6320 C   0  0  0  0  0  0  0  0  0  0  0  0
   -4.4281    6.0571   26.3258 C   0  0  0  0  0  0  0  0  0  0  0  0
   -4.7672    5.6675   24.9554 C   0  0  0  0  0  0  0  0  0  0  0  0
   -4.2064    6.3136   23.8493 C   0  0  0  0  0  0  0  0  0  0  0  0
   -4.5674    5.9959   22.5638 C   0  0  0  0  0  0  0  0  0  0  0  0
   -5.5392    5.0353   22.3238 C   0  0  0  0  0  0  0  0  0  0  0  0
   -6.1105    4.4023   23.4128 C   0  0  0  0  0  0  0  0  0  0  0  0
   -5.7391    4.7185   24.6944 C   0  0  0  0  0  0  0  0  0  0  0  0
   -6.0041    4.7058   20.9246 C   0  0  0  0  0  0  0  0  0  0  0  0
   -4.1217    5.2368   27.1668 O   0  0  0  0  0  0  0  0  0  0  0  0
   -6.4250    5.6795   20.2842 O   0  0  0  0  0  0  0  0  0  0  0  0
   -5.8343    3.5433   20.5035 O   0  0  0  0  0  0  0  0  0  0  0  0
   -4.9119   11.2394   27.9259 H   0  0  0  0  0  0  0  0  0  0  0  0
   -3.2327    9.7487   29.0087 H   0  0  0  0  0  0  0  0  0  0  0  0
   -2.9861    7.3949   28.2932 H   0  0  0  0  0  0  0  0  0  0  0  0
   -6.1464    7.9685   25.4458 H   0  0  0  0  0  0  0  0  0  0  0  0
   -6.3843   10.3105   26.1575 H   0  0  0  0  0  0  0  0  0  0  0  0
   -3.4542    7.0991   24.0142 H   0  0  0  0  0  0  0  0  0  0  0  0
   -4.0830    6.5062   21.7183 H   0  0  0  0  0  0  0  0  0  0  0  0
   -6.8770    3.6308   23.2477 H   0  0  0  0  0  0  0  0  0  0  0  0
   -6.2264    4.2046   25.5361 H   0  0  0  0  0  0  0  0  0  0  0  0
  1  2  2  0
  1  6  1  0
  2  3  1  0
  3  4  2  0
  4  5  1  0
  4  7  1  0
  5  6  2  0
  7  8  1  0
  7 15  2  0
  8  9  2  0
  8 13  1  0
  9 10  1  0
 10 11  2  0
 11 12  1  0
 11 14  1  0
 12 13  2  0
 14 16  2  0
 14 17  1  0
  1 18  1  0
  2 19  1  0
  3 20  1  0
  5 21  1  0
  6 22  1  0
  9 23  1  0
 10 24  1  0
 12 25  1  0
 13 26  1  0
M  CHG  1  17  -1
M  END
>  <filename_input>  (22) 
8D39_QDB_docked.sdf

>  <pdb_id>  (22) 
8D39_QDB

>  <pose_rank>  (22) 
21

>  <num_atoms_heavy>  (22) 
17

>  <num_torsions>  (22) 
3

>  <pose>  (22) 
[-4.767152262432618, 5.667472039643491, 24.955370126467095, 4.594499674109537, -1.257844802830568, -0.8865453687309907, 1.8496241905680522, -0.06635089302458465, 0.46891748715871534]

>  <energy>  (22) 
-128.5416027963194

>  <inter_energy>  (22) 
-127.07613212726997

>  <intra_energy>  (22) 
5.032593045986138

>  <rmsd>  (22) 
11.8724

>  <sdf_rank>  (22) 
0

$$$$

     RDKit          3D

 26 27  0  0  0  0  0  0  0  0999 V2000
   -4.6918   11.4327   21.1006 C   0  0  0  0  0  0  0  0  0  0  0  0
   -5.4960   10.4445   21.6534 C   0  0  0  0  0  0  0  0  0  0  0  0
   -4.9952    9.5684   22.6131 C   0  0  0  0  0  0  0  0  0  0  0  0
   -3.6786    9.6467   23.0512 C   0  0  0  0  0  0  0  0  0  0  0  0
   -2.8896   10.6443   22.4583 C   0  0  0  0  0  0  0  0  0  0  0  0
   -3.3834   11.5178   21.5057 C   0  0  0  0  0  0  0  0  0  0  0  0
   -3.0838    8.7188   24.0891 C   0  0  0  0  0  0  0  0  0  0  0  0
   -3.8833    7.6892   24.7566 C   0  0  0  0  0  0  0  0  0  0  0  0
   -4.0972    7.7081   26.1384 C   0  0  0  0  0  0  0  0  0  0  0  0
   -4.7920    6.7125   26.7784 C   0  0  0  0  0  0  0  0  0  0  0  0
   -5.2779    5.6252   26.0667 C   0  0  0  0  0  0  0  0  0  0  0  0
   -5.0571    5.5906   24.7018 C   0  0  0  0  0  0  0  0  0  0  0  0
   -4.3694    6.5930   24.0671 C   0  0  0  0  0  0  0  0  0  0  0  0
   -5.9924    4.4823   26.7491 C   0  0  0  0  0  0  0  0  0  0  0  0
   -1.9274    8.9281   24.3937 O   0  0  0  0  0  0  0  0  0  0  0  0
   -6.3024    4.7054   27.9278 O   0  0  0  0  0  0  0  0  0  0  0  0
   -6.2969    3.4832   26.0659 O   0  0  0  0  0  0  0  0  0  0  0  0
   -5.0952   12.1324   20.3538 H   0  0  0  0  0  0  0  0  0  0  0  0
   -6.5430   10.3526   21.3287 H   0  0  0  0  0  0  0  0  0  0  0  0
   -5.6568    8.7969   23.0339 H   0  0  0  0  0  0  0  0  0  0  0  0
   -1.8366   10.7354   22.7631 H   0  0  0  0  0  0  0  0  0  0  0  0
   -2.7243   12.2838   21.0711 H   0  0  0  0  0  0  0  0  0  0  0  0
   -3.6972    8.5452   26.7294 H   0  0  0  0  0  0  0  0  0  0  0  0
   -4.9647    6.7770   27.8628 H   0  0  0  0  0  0  0  0  0  0  0  0
   -5.4403    4.7432   24.1143 H   0  0  0  0  0  0  0  0  0  0  0  0
   -4.2002    6.5237   22.9824 H   0  0  0  0  0  0  0  0  0  0  0  0
  1  2  2  0
  1  6  1  0
  2  3  1  0
  3  4  2  0
  4  5  1  0
  4  7  1  0
  5  6  2  0
  7  8  1  0
  7 15  2  0
  8  9  2  0
  8 13  1  0
  9 10  1  0
 10 11  2  0
 11 12  1  0
 11 14  1  0
 12 13  2  0
 14 16  2  0
 14 17  1  0
  1 18  1  0
  2 19  1  0
  3 20  1  0
  5 21  1  0
  6 22  1  0
  9 23  1  0
 10 24  1  0
 12 25  1  0
 13 26  1  0
M  CHG  1  17  -1
M  END
>  <filename_input>  (23) 
8D39_QDB_docked.sdf

>  <pdb_id>  (23) 
8D39_QDB

>  <pose_rank>  (23) 
22

>  <num_atoms_heavy>  (23) 
17

>  <num_torsions>  (23) 
3

>  <pose>  (23) 
[-3.88328967511162, 7.689190549298919, 24.75664230733798, -1.50129011423862, -1.026898559737453, -3.0412758833014863, 3.0307733188311787, 3.251191326575212, 3.0630341528623815]

>  <energy>  (23) 
-154.84276722182685

>  <inter_energy>  (23) 
-127.4908581938051

>  <intra_energy>  (23) 
5.540437725026581

>  <rmsd>  (23) 
12.8483

>  <sdf_rank>  (23) 
0

$$$$

     RDKit          3D

 26 27  0  0  0  0  0  0  0  0999 V2000
   -6.3378    0.3247   13.2863 C   0  0  0  0  0  0  0  0  0  0  0  0
   -6.1568    1.3242   14.2334 C   0  0  0  0  0  0  0  0  0  0  0  0
   -5.9320    1.0098   15.5712 C   0  0  0  0  0  0  0  0  0  0  0  0
   -5.8822   -0.3084   16.0090 C   0  0  0  0  0  0  0  0  0  0  0  0
   -6.0876   -1.2917   15.0292 C   0  0  0  0  0  0  0  0  0  0  0  0
   -6.3098   -0.9840   13.6986 C   0  0  0  0  0  0  0  0  0  0  0  0
   -5.6434   -0.7046   17.4505 C   0  0  0  0  0  0  0  0  0  0  0  0
   -5.5966   -2.1068   17.8708 C   0  0  0  0  0  0  0  0  0  0  0  0
   -6.4294   -2.5977   18.8811 C   0  0  0  0  0  0  0  0  0  0  0  0
   -6.3466   -3.8944   19.3231 C   0  0  0  0  0  0  0  0  0  0  0  0
   -5.3960   -4.7570   18.7967 C   0  0  0  0  0  0  0  0  0  0  0  0
   -4.5576   -4.2750   17.8079 C   0  0  0  0  0  0  0  0  0  0  0  0
   -4.6512   -2.9807   17.3648 C   0  0  0  0  0  0  0  0  0  0  0  0
   -5.2369   -6.1711   19.3039 C   0  0  0  0  0  0  0  0  0  0  0  0
   -5.5717    0.2057   18.2506 O   0  0  0  0  0  0  0  0  0  0  0  0
   -5.0962   -7.0201   18.4124 O   0  0  0  0  0  0  0  0  0  0  0  0
   -5.1557   -6.3517   20.5361 O   0  0  0  0  0  0  0  0  0  0  0  0
   -6.5002    0.5766   12.2279 H   0  0  0  0  0  0  0  0  0  0  0  0
   -6.1915    2.3788   13.9225 H   0  0  0  0  0  0  0  0  0  0  0  0
   -5.7905    1.8232   16.2981 H   0  0  0  0  0  0  0  0  0  0  0  0
   -6.0713   -2.3494   15.3310 H   0  0  0  0  0  0  0  0  0  0  0  0
   -6.4646   -1.7917   12.9682 H   0  0  0  0  0  0  0  0  0  0  0  0
   -7.1724   -1.9252   19.3347 H   0  0  0  0  0  0  0  0  0  0  0  0
   -7.0385   -4.2521   20.0998 H   0  0  0  0  0  0  0  0  0  0  0  0
   -3.8015   -4.9425   17.3688 H   0  0  0  0  0  0  0  0  0  0  0  0
   -3.9571   -2.6285   16.5874 H   0  0  0  0  0  0  0  0  0  0  0  0
  1  2  2  0
  1  6  1  0
  2  3  1  0
  3  4  2  0
  4  5  1  0
  4  7  1  0
  5  6  2  0
  7  8  1  0
  7 15  2  0
  8  9  2  0
  8 13  1  0
  9 10  1  0
 10 11  2  0
 11 12  1  0
 11 14  1  0
 12 13  2  0
 14 16  2  0
 14 17  1  0
  1 18  1  0
  2 19  1  0
  3 20  1  0
  5 21  1  0
  6 22  1  0
  9 23  1  0
 10 24  1  0
 12 25  1  0
 13 26  1  0
M  CHG  1  17  -1
M  END
>  <filename_input>  (24) 
8D39_QDB_docked.sdf

>  <pdb_id>  (24) 
8D39_QDB

>  <pose_rank>  (24) 
23

>  <num_atoms_heavy>  (24) 
17

>  <num_torsions>  (24) 
3

>  <pose>  (24) 
[-5.59655942408788, -2.10679422332151, 17.870789426362972, -0.0948985478262433, 1.2330962392335458, 3.112702286317089, -1.0783374938191643, -3.156033311214122, -0.03227665948315744]

>  <energy>  (24) 
-149.51930415712562

>  <inter_energy>  (24) 
-149.7678286899316

>  <intra_energy>  (24) 
10.079140935418089

>  <rmsd>  (24) 
12.2348

>  <sdf_rank>  (24) 
0

$$$$

     RDKit          3D

 26 27  0  0  0  0  0  0  0  0999 V2000
   -5.8414    4.4457   20.3442 C   0  0  0  0  0  0  0  0  0  0  0  0
   -6.0835    5.8116   20.4109 C   0  0  0  0  0  0  0  0  0  0  0  0
   -5.9266    6.5083   21.6064 C   0  0  0  0  0  0  0  0  0  0  0  0
   -5.5260    5.8678   22.7730 C   0  0  0  0  0  0  0  0  0  0  0  0
   -5.3082    4.4852   22.6738 C   0  0  0  0  0  0  0  0  0  0  0  0
   -5.4614    3.7892   21.4878 C   0  0  0  0  0  0  0  0  0  0  0  0
   -5.3427    6.5767   24.0981 C   0  0  0  0  0  0  0  0  0  0  0  0
   -4.3861    7.6732   24.2642 C   0  0  0  0  0  0  0  0  0  0  0  0
   -3.6021    8.1298   23.2002 C   0  0  0  0  0  0  0  0  0  0  0  0
   -2.6593    9.1136   23.3640 C   0  0  0  0  0  0  0  0  0  0  0  0
   -2.4298    9.6658   24.6159 C   0  0  0  0  0  0  0  0  0  0  0  0
   -3.1901    9.2088   25.6771 C   0  0  0  0  0  0  0  0  0  0  0  0
   -4.1365    8.2313   25.5050 C   0  0  0  0  0  0  0  0  0  0  0  0
   -1.3576   10.7056   24.8428 C   0  0  0  0  0  0  0  0  0  0  0  0
   -5.9760    6.1331   25.0341 O   0  0  0  0  0  0  0  0  0  0  0  0
   -0.8362   10.6642   25.9660 O   0  0  0  0  0  0  0  0  0  0  0  0
   -1.0206   11.4267   23.8816 O   0  0  0  0  0  0  0  0  0  0  0  0
   -5.9519    3.9015   19.3946 H   0  0  0  0  0  0  0  0  0  0  0  0
   -6.4036    6.3506   19.5070 H   0  0  0  0  0  0  0  0  0  0  0  0
   -6.1242    7.5902   21.6279 H   0  0  0  0  0  0  0  0  0  0  0  0
   -5.0035    3.9325   23.5748 H   0  0  0  0  0  0  0  0  0  0  0  0
   -5.2778    2.7049   21.4615 H   0  0  0  0  0  0  0  0  0  0  0  0
   -3.7451    7.6877   22.2031 H   0  0  0  0  0  0  0  0  0  0  0  0
   -2.0818    9.4668   22.4969 H   0  0  0  0  0  0  0  0  0  0  0  0
   -3.0327    9.6373   26.6779 H   0  0  0  0  0  0  0  0  0  0  0  0
   -4.7114    7.8824   26.3754 H   0  0  0  0  0  0  0  0  0  0  0  0
  1  2  2  0
  1  6  1  0
  2  3  1  0
  3  4  2  0
  4  5  1  0
  4  7  1  0
  5  6  2  0
  7  8  1  0
  7 15  2  0
  8  9  2  0
  8 13  1  0
  9 10  1  0
 10 11  2  0
 11 12  1  0
 11 14  1  0
 12 13  2  0
 14 16  2  0
 14 17  1  0
  1 18  1  0
  2 19  1  0
  3 20  1  0
  5 21  1  0
  6 22  1  0
  9 23  1  0
 10 24  1  0
 12 25  1  0
 13 26  1  0
M  CHG  1  17  -1
M  END
>  <filename_input>  (25) 
8D39_QDB_docked.sdf

>  <pdb_id>  (25) 
8D39_QDB

>  <pose_rank>  (25) 
24

>  <num_atoms_heavy>  (25) 
17

>  <num_torsions>  (25) 
3

>  <pose>  (25) 
[-4.386137815707476, 7.67319023037841, 24.26418512392701, 1.2859641568489073, 1.8851126258493478, -0.653183868872635, 0.24188983452343016, -0.972920310454691, -4.220495502295206]

>  <energy>  (25) 
-147.27433961455563

>  <inter_energy>  (25) 
-148.13354821292165

>  <intra_energy>  (25) 
9.024702792883787

>  <rmsd>  (25) 
11.1063

>  <sdf_rank>  (25) 
0

$$$$

     RDKit          3D

 26 27  0  0  0  0  0  0  0  0999 V2000
    2.3480   -0.2580   23.7830 C   0  0  0  0  0  0  0  0  0  0  0  0
    2.5260   -1.4260   23.0530 C   0  0  0  0  0  0  0  0  0  0  0  0
    2.9130   -1.3820   21.7160 C   0  0  0  0  0  0  0  0  0  0  0  0
    3.1330   -0.1750   21.0630 C   0  0  0  0  0  0  0  0  0  0  0  0
    2.9260    0.9850   21.8250 C   0  0  0  0  0  0  0  0  0  0  0  0
    2.5430    0.9460   23.1540 C   0  0  0  0  0  0  0  0  0  0  0  0
    3.5520   -0.0710   19.6120 C   0  0  0  0  0  0  0  0  0  0  0  0
    3.8140    1.2200   18.9720 C   0  0  0  0  0  0  0  0  0  0  0  0
    4.7560    2.1160   19.4870 C   0  0  0  0  0  0  0  0  0  0  0  0
    4.9610    3.3530   18.9290 C   0  0  0  0  0  0  0  0  0  0  0  0
    4.2030    3.7690   17.8440 C   0  0  0  0  0  0  0  0  0  0  0  0
    3.2580    2.8950   17.3380 C   0  0  0  0  0  0  0  0  0  0  0  0
    3.0640    1.6570   17.8950 C   0  0  0  0  0  0  0  0  0  0  0  0
    4.3600    5.1470   17.2450 C   0  0  0  0  0  0  0  0  0  0  0  0
    3.5820   -1.1120   18.9880 O   0  0  0  0  0  0  0  0  0  0  0  0
    3.4090    5.5070   16.5370 O   0  0  0  0  0  0  0  0  0  0  0  0
    5.3480    5.8300   17.5840 O   0  0  0  0  0  0  0  0  0  0  0  0
    2.0569   -0.2972   24.8430 H   0  0  0  0  0  0  0  0  0  0  0  0
    2.3590   -2.3993   23.5376 H   0  0  0  0  0  0  0  0  0  0  0  0
    3.0476   -2.3240   21.1642 H   0  0  0  0  0  0  0  0  0  0  0  0
    3.0741    1.9644   21.3467 H   0  0  0  0  0  0  0  0  0  0  0  0
    2.3942    1.8841   23.7088 H   0  0  0  0  0  0  0  0  0  0  0  0
    5.3498    1.8209   20.3647 H   0  0  0  0  0  0  0  0  0  0  0  0
    5.7314    4.0190   19.3448 H   0  0  0  0  0  0  0  0  0  0  0  0
    2.6507    3.1986   16.4726 H   0  0  0  0  0  0  0  0  0  0  0  0
    2.2926    0.9949   17.4748 H   0  0  0  0  0  0  0  0  0  0  0  0
  1  2  2  0
  1  6  1  0
  2  3  1  0
  3  4  2  0
  4  5  1  0
  4  7  1  0
  5  6  2  0
  7  8  1  0
  7 15  2  0
  8  9  2  0
  8 13  1  0
  9 10  1  0
 10 11  2  0
 11 12  1  0
 11 14  1  0
 12 13  2  0
 14 16  2  0
 14 17  1  0
  1 18  1  0
  2 19  1  0
  3 20  1  0
  5 21  1  0
  6 22  1  0
  9 23  1  0
 10 24  1  0
 12 25  1  0
 13 26  1  0
M  CHG  1  17  -1
M  END
>  <filename_input>  (26) 
8D39_QDB_docked.sdf

>  <pdb_id>  (26) 
8D39_QDB

>  <pose_rank>  (26) 
25

>  <num_atoms_heavy>  (26) 
17

>  <num_torsions>  (26) 
3

>  <pose>  (26) 
[3.814, 1.22, 18.972, 1e-06, 1e-06, 1e-06, 0.0, 0.0, 0.0]

>  <energy>  (26) 
-963.7374871543552

>  <inter_energy>  (26) 
-982.8393382416048

>  <intra_energy>  (26) 
11.638129335901077

>  <rmsd>  (26) 
0.0

>  <sdf_rank>  (26) 
0

$$$$
