
     RDKit          3D

 47 47  0  0  0  0  0  0  0  0999 V2000
    1.9801   -7.5810   38.6365 C   0  0  0  0  0  0  0  0  0  0  0  0
    3.0903   -8.3090   38.2356 C   0  0  0  0  0  0  0  0  0  0  0  0
    3.3177   -8.4896   36.8531 C   0  0  0  0  0  0  0  0  0  0  0  0
    2.4891   -7.8380   35.9021 C   0  0  0  0  0  0  0  0  0  0  0  0
    1.4299   -7.0478   36.3608 C   0  0  0  0  0  0  0  0  0  0  0  0
    7.2896   -9.8405   34.5504 C   0  0  0  0  0  0  0  0  0  0  0  0
    3.8678   -8.7787   39.1258 O   0  0  0  0  0  0  0  0  0  0  0  0
    0.5607  -10.0659   32.0329 O   0  0  0  0  0  0  0  0  0  0  0  0
    2.9502   -9.2615   31.8044 O   0  0  0  0  0  0  0  0  0  0  0  0
    2.2644  -10.7829   33.7195 O   0  0  0  0  0  0  0  0  0  0  0  0
    1.6054   -8.4238   33.7222 O   0  0  0  0  0  0  0  0  0  0  0  0
    5.5864   -8.8893   36.0850 N   0  0  0  0  0  0  0  0  0  0  0  0
    1.8445   -9.6902   32.7450 P   0  0  2  0  0  0  0  0  0  0  0  0
    1.6088   -7.4673   40.0875 C   0  0  0  0  0  0  0  0  0  0  0  0
    4.4310   -9.3590   36.3759 C   0  0  0  0  0  0  0  0  0  0  0  0
    2.7488   -7.9250   34.4247 C   0  0  0  0  0  0  0  0  0  0  0  0
    1.2141   -6.9493   37.6725 N   0  0  0  0  0  0  0  0  0  0  0  0
    6.8481   -9.6226   36.0028 C   0  0  1  0  0  0  0  0  0  0  0  0
    6.8233  -10.9427   36.8173 C   0  0  0  0  0  0  0  0  0  0  0  0
    7.1475  -10.9120   38.0330 O   0  0  0  0  0  0  0  0  0  0  0  0
    8.6699  -10.4685   34.5643 C   0  0  0  0  0  0  0  0  0  0  0  0
    9.1751  -10.7840   33.1849 C   0  0  0  0  0  0  0  0  0  0  0  0
    9.6243   -9.5548   32.5684 N   0  0  0  0  0  0  0  0  0  0  0  0
   10.8218   -9.4167   32.0115 C   0  0  0  0  0  0  0  0  0  0  0  0
   11.1597   -8.2727   31.4626 N   0  0  0  0  0  0  0  0  0  0  0  0
   11.6899  -10.4070   32.0603 N   0  0  0  0  0  0  0  0  0  0  0  0
    6.4538  -11.9839   36.1979 O   0  0  0  0  0  0  0  0  0  0  0  0
    0.7835   -6.5145   35.6482 H   0  0  0  0  0  0  0  0  0  0  0  0
    6.5806  -10.5107   34.0421 H   0  0  0  0  0  0  0  0  0  0  0  0
    7.3138   -8.8813   34.0124 H   0  0  0  0  0  0  0  0  0  0  0  0
    4.6658   -9.3011   38.8604 H   0  0  0  0  0  0  0  0  0  0  0  0
    2.4761   -7.7330   40.7098 H   0  0  0  0  0  0  0  0  0  0  0  0
    1.3024   -6.4340   40.3077 H   0  0  0  0  0  0  0  0  0  0  0  0
    0.7762   -8.1515   40.3077 H   0  0  0  0  0  0  0  0  0  0  0  0
    4.2541  -10.4395   36.2702 H   0  0  0  0  0  0  0  0  0  0  0  0
    2.9931   -6.9221   34.0446 H   0  0  0  0  0  0  0  0  0  0  0  0
    3.5861   -8.6192   34.2605 H   0  0  0  0  0  0  0  0  0  0  0  0
    7.6121   -8.9877   36.4753 H   0  0  0  0  0  0  0  0  0  0  0  0
    9.3703   -9.7694   35.0446 H   0  0  0  0  0  0  0  0  0  0  0  0
    8.5992  -11.4163   35.1180 H   0  0  0  0  0  0  0  0  0  0  0  0
   10.0126  -11.4942   33.2499 H   0  0  0  0  0  0  0  0  0  0  0  0
    8.3723  -11.2358   32.5837 H   0  0  0  0  0  0  0  0  0  0  0  0
    8.9844   -8.7477   32.5610 H   0  0  0  0  0  0  0  0  0  0  0  0
   12.0880   -8.1634   31.0301 H   0  0  0  0  0  0  0  0  0  0  0  0
   10.4964   -7.4847   31.4647 H   0  0  0  0  0  0  0  0  0  0  0  0
   12.6187  -10.2994   31.6282 H   0  0  0  0  0  0  0  0  0  0  0  0
   11.4397  -11.2885   32.5306 H   0  0  0  0  0  0  0  0  0  0  0  0
  1  2  2  0
  1 14  1  0
  1 17  1  0
  2  3  1  0
  2  7  1  0
  3  4  2  0
  3 15  1  0
  4  5  1  0
  4 16  1  0
  5 17  2  0
 18  6  1  0
  6 21  1  0
 13  8  1  6
  9 13  1  0
 10 13  2  0
 11 13  1  0
 11 16  1  0
 12 15  2  3
 12 18  1  0
 18 19  1  0
 19 20  1  0
 19 27  2  0
 21 22  1  0
 22 23  1  0
 23 24  1  0
 24 25  1  0
 24 26  2  0
  5 28  1  0
  6 29  1  0
  6 30  1  0
  7 31  1  0
 14 32  1  0
 14 33  1  0
 14 34  1  0
 15 35  1  0
 16 36  1  0
 16 37  1  0
 18 38  1  1
 21 39  1  0
 21 40  1  0
 22 41  1  0
 22 42  1  0
 23 43  1  0
 25 44  1  0
 25 45  1  0
 26 46  1  0
 26 47  1  0
M  CHG  4   8  -1   9  -1  20  -1  26   1
M  END
>  <filename_input>  (1) 
8D5D_5DK_docked.sdf

>  <pdb_id>  (1) 
8D5D_5DK

>  <pose_rank>  (1) 
0

>  <num_atoms_heavy>  (1) 
27

>  <num_torsions>  (1) 
10

>  <pose>  (1) 
[1.9801068979258438, -7.58103346529693, 38.63646203140031, 0.029804491878985814, -0.19474820813152316, -0.3393489890399165, -20.399712797328494, -17.760724438875712, -2.169267843418206, 25.37715079254223, -25.279211857781455, 4.67815209692465, -13.360921784449905, -17.74823612667836, 13.640363682648827, -1.9496525147437351]

>  <energy>  (1) 
-937.4576145779661

>  <inter_energy>  (1) 
-939.2900685104936

>  <intra_energy>  (1) 
11.004849129295906

>  <rmsd>  (1) 
0.854807

>  <sdf_rank>  (1) 
0

$$$$

     RDKit          3D

 47 47  0  0  0  0  0  0  0  0999 V2000
    2.5307   -7.7736   39.2098 C   0  0  0  0  0  0  0  0  0  0  0  0
    3.7245   -8.1329   38.6026 C   0  0  0  0  0  0  0  0  0  0  0  0
    3.7426   -8.3172   37.2021 C   0  0  0  0  0  0  0  0  0  0  0  0
    2.5889   -8.0243   36.4285 C   0  0  0  0  0  0  0  0  0  0  0  0
    1.4326   -7.5863   37.0826 C   0  0  0  0  0  0  0  0  0  0  0  0
    7.3998  -11.5405   37.2369 C   0  0  0  0  0  0  0  0  0  0  0  0
    4.7608   -8.2737   39.3265 O   0  0  0  0  0  0  0  0  0  0  0  0
    0.4924   -9.6679   32.2486 O   0  0  0  0  0  0  0  0  0  0  0  0
    2.7824   -8.5899   32.2991 O   0  0  0  0  0  0  0  0  0  0  0  0
    2.4532  -10.9877   33.0701 O   0  0  0  0  0  0  0  0  0  0  0  0
    1.6873   -9.1271   34.4671 O   0  0  0  0  0  0  0  0  0  0  0  0
    5.6827   -9.7637   37.0012 N   0  0  0  0  0  0  0  0  0  0  0  0
    1.8452   -9.5984   32.9279 P   0  0  2  0  0  0  0  0  0  0  0  0
    2.4133   -7.6942   40.7052 C   0  0  0  0  0  0  0  0  0  0  0  0
    4.9715   -8.8139   36.5194 C   0  0  0  0  0  0  0  0  0  0  0  0
    2.5892   -8.1157   34.9287 C   0  0  0  0  0  0  0  0  0  0  0  0
    1.4390   -7.4804   38.4114 N   0  0  0  0  0  0  0  0  0  0  0  0
    6.6383  -10.6081   36.2869 C   0  0  1  0  0  0  0  0  0  0  0  0
    7.5890   -9.7898   35.3739 C   0  0  0  0  0  0  0  0  0  0  0  0
    7.4640   -9.8867   34.1254 O   0  0  0  0  0  0  0  0  0  0  0  0
    7.0265  -12.9705   36.8969 C   0  0  0  0  0  0  0  0  0  0  0  0
    7.9468  -13.5813   35.8785 C   0  0  0  0  0  0  0  0  0  0  0  0
    8.9959  -14.2927   36.5760 N   0  0  0  0  0  0  0  0  0  0  0  0
    9.6757  -15.2972   36.0359 C   0  0  0  0  0  0  0  0  0  0  0  0
   10.6212  -15.8925   36.7257 N   0  0  0  0  0  0  0  0  0  0  0  0
    9.3635  -15.7329   34.8320 N   0  0  0  0  0  0  0  0  0  0  0  0
    8.4351   -9.0487   35.9564 O   0  0  0  0  0  0  0  0  0  0  0  0
    0.5297   -7.3325   36.5079 H   0  0  0  0  0  0  0  0  0  0  0  0
    8.4831  -11.3980   37.1096 H   0  0  0  0  0  0  0  0  0  0  0  0
    7.1363  -11.3169   38.2812 H   0  0  0  0  0  0  0  0  0  0  0  0
    5.6228   -8.5298   38.9123 H   0  0  0  0  0  0  0  0  0  0  0  0
    3.2398   -8.2533   41.1681 H   0  0  0  0  0  0  0  0  0  0  0  0
    2.4602   -6.6417   41.0213 H   0  0  0  0  0  0  0  0  0  0  0  0
    1.4538   -8.1295   41.0213 H   0  0  0  0  0  0  0  0  0  0  0  0
    5.2774   -8.3493   35.5704 H   0  0  0  0  0  0  0  0  0  0  0  0
    2.2829   -7.1453   34.5109 H   0  0  0  0  0  0  0  0  0  0  0  0
    3.6045   -8.3799   34.5980 H   0  0  0  0  0  0  0  0  0  0  0  0
    6.0496  -11.2503   35.6153 H   0  0  0  0  0  0  0  0  0  0  0  0
    7.0681  -13.5735   37.8160 H   0  0  0  0  0  0  0  0  0  0  0  0
    6.0145  -12.9572   36.4659 H   0  0  0  0  0  0  0  0  0  0  0  0
    7.3844  -14.2803   35.2420 H   0  0  0  0  0  0  0  0  0  0  0  0
    8.3820  -12.7951   35.2441 H   0  0  0  0  0  0  0  0  0  0  0  0
    9.2264  -14.0061   37.5381 H   0  0  0  0  0  0  0  0  0  0  0  0
   11.1499  -16.6719   36.3087 H   0  0  0  0  0  0  0  0  0  0  0  0
   10.8341  -15.5801   37.6838 H   0  0  0  0  0  0  0  0  0  0  0  0
    9.8912  -16.5121   34.4134 H   0  0  0  0  0  0  0  0  0  0  0  0
    8.5917  -15.2942   34.3097 H   0  0  0  0  0  0  0  0  0  0  0  0
  1  2  2  0
  1 14  1  0
  1 17  1  0
  2  3  1  0
  2  7  1  0
  3  4  2  0
  3 15  1  0
  4  5  1  0
  4 16  1  0
  5 17  2  0
 18  6  1  0
  6 21  1  0
 13  8  1  6
  9 13  1  0
 10 13  2  0
 11 13  1  0
 11 16  1  0
 12 15  2  3
 12 18  1  0
 18 19  1  0
 19 20  1  0
 19 27  2  0
 21 22  1  0
 22 23  1  0
 23 24  1  0
 24 25  1  0
 24 26  2  0
  5 28  1  0
  6 29  1  0
  6 30  1  0
  7 31  1  0
 14 32  1  0
 14 33  1  0
 14 34  1  0
 15 35  1  0
 16 36  1  0
 16 37  1  0
 18 38  1  6
 21 39  1  0
 21 40  1  0
 22 41  1  0
 22 42  1  0
 23 43  1  0
 25 44  1  0
 25 45  1  0
 26 46  1  0
 26 47  1  0
M  CHG  4   8  -1   9  -1  20  -1  26   1
M  END
>  <filename_input>  (2) 
8D5D_5DK_docked.sdf

>  <pdb_id>  (2) 
8D5D_5DK

>  <pose_rank>  (2) 
1

>  <num_atoms_heavy>  (2) 
27

>  <num_torsions>  (2) 
10

>  <pose>  (2) 
[2.5306833468046674, -7.773608653945717, 39.20975202871258, -1.4113480976513548, -2.1453243001591544, -5.745408627820355, -11.73952192136501, 2.288485481750244, -2.5579300737309905, -7.061425311473607, -14.225075913265744, -20.166869667953886, -6.601162516809273, -24.16768943282863, -12.156945112356137, -1.1867947706622282]

>  <energy>  (2) 
-778.2013549826814

>  <inter_energy>  (2) 
-782.894434359446

>  <intra_energy>  (2) 
10.599446749562503

>  <rmsd>  (2) 
3.13553

>  <sdf_rank>  (2) 
0

$$$$

     RDKit          3D

 47 47  0  0  0  0  0  0  0  0999 V2000
    2.6748   -7.8955   39.2347 C   0  0  0  0  0  0  0  0  0  0  0  0
    3.8844   -8.1571   38.6091 C   0  0  0  0  0  0  0  0  0  0  0  0
    3.8994   -8.3179   37.2056 C   0  0  0  0  0  0  0  0  0  0  0  0
    2.7183   -8.0983   36.4493 C   0  0  0  0  0  0  0  0  0  0  0  0
    1.5409   -7.7562   37.1227 C   0  0  0  0  0  0  0  0  0  0  0  0
    7.9008  -10.8364   36.2952 C   0  0  0  0  0  0  0  0  0  0  0  0
    4.9368   -8.2330   39.3194 O   0  0  0  0  0  0  0  0  0  0  0  0
    3.0066   -8.8323   32.0577 O   0  0  0  0  0  0  0  0  0  0  0  0
    2.2113  -11.1608   32.6532 O   0  0  0  0  0  0  0  0  0  0  0  0
    0.6618   -9.1595   32.8679 O   0  0  0  0  0  0  0  0  0  0  0  0
    2.4673   -9.5004   34.4877 O   0  0  0  0  0  0  0  0  0  0  0  0
    5.6129   -9.9073   36.5466 N   0  0  0  0  0  0  0  0  0  0  0  0
    2.0934   -9.6763   32.9240 P   0  0  2  0  0  0  0  0  0  0  0  0
    2.5697   -7.8480   40.7324 C   0  0  0  0  0  0  0  0  0  0  0  0
    5.1530   -8.7129   36.5018 C   0  0  0  0  0  0  0  0  0  0  0  0
    2.7074   -8.1663   34.9483 C   0  0  0  0  0  0  0  0  0  0  0  0
    1.5553   -7.6706   38.4529 N   0  0  0  0  0  0  0  0  0  0  0  0
    6.5575  -10.5305   35.6215 C   0  0  1  0  0  0  0  0  0  0  0  0
    6.7256   -9.7218   34.3083 C   0  0  0  0  0  0  0  0  0  0  0  0
    5.9271   -9.9333   33.3588 O   0  0  0  0  0  0  0  0  0  0  0  0
    8.4351  -12.1334   35.7188 C   0  0  0  0  0  0  0  0  0  0  0  0
    8.8842  -11.9899   34.2923 C   0  0  0  0  0  0  0  0  0  0  0  0
    9.8522  -10.9171   34.2215 N   0  0  0  0  0  0  0  0  0  0  0  0
   10.1194  -10.2523   33.1036 C   0  0  0  0  0  0  0  0  0  0  0  0
   11.0057   -9.2835   33.1148 N   0  0  0  0  0  0  0  0  0  0  0  0
    9.5386  -10.6020   31.9735 N   0  0  0  0  0  0  0  0  0  0  0  0
    7.6638   -8.8712   34.2827 O   0  0  0  0  0  0  0  0  0  0  0  0
    0.6151   -7.5603   36.5619 H   0  0  0  0  0  0  0  0  0  0  0  0
    8.6112  -10.0202   36.0971 H   0  0  0  0  0  0  0  0  0  0  0  0
    7.7679  -10.9302   37.3831 H   0  0  0  0  0  0  0  0  0  0  0  0
    5.8102   -8.4189   38.8920 H   0  0  0  0  0  0  0  0  0  0  0  0
    3.4864   -8.2621   41.1776 H   0  0  0  0  0  0  0  0  0  0  0  0
    2.4426   -6.8051   41.0582 H   0  0  0  0  0  0  0  0  0  0  0  0
    1.7031   -8.4421   41.0582 H   0  0  0  0  0  0  0  0  0  0  0  0
    5.7010   -7.9533   35.9251 H   0  0  0  0  0  0  0  0  0  0  0  0
    1.9140   -7.5073   34.5658 H   0  0  0  0  0  0  0  0  0  0  0  0
    3.6929   -7.8449   34.5799 H   0  0  0  0  0  0  0  0  0  0  0  0
    6.1208  -11.4970   35.3299 H   0  0  0  0  0  0  0  0  0  0  0  0
    9.2911  -12.4626   36.3262 H   0  0  0  0  0  0  0  0  0  0  0  0
    7.6171  -12.8685   35.7383 H   0  0  0  0  0  0  0  0  0  0  0  0
    9.3454  -12.9289   33.9522 H   0  0  0  0  0  0  0  0  0  0  0  0
    8.0227  -11.7635   33.6469 H   0  0  0  0  0  0  0  0  0  0  0  0
   10.3586  -10.6564   35.0797 H   0  0  0  0  0  0  0  0  0  0  0  0
   11.2145   -8.7664   32.2489 H   0  0  0  0  0  0  0  0  0  0  0  0
   11.4920   -9.0406   33.9897 H   0  0  0  0  0  0  0  0  0  0  0  0
    9.7462  -10.0860   31.1066 H   0  0  0  0  0  0  0  0  0  0  0  0
    8.8771  -11.3913   31.9572 H   0  0  0  0  0  0  0  0  0  0  0  0
  1  2  2  0
  1 14  1  0
  1 17  1  0
  2  3  1  0
  2  7  1  0
  3  4  2  0
  3 15  1  0
  4  5  1  0
  4 16  1  0
  5 17  2  0
 18  6  1  0
  6 21  1  0
 13  8  1  6
  9 13  1  0
 10 13  2  0
 11 13  1  0
 11 16  1  0
 12 15  2  3
 12 18  1  0
 18 19  1  0
 19 20  1  0
 19 27  2  0
 21 22  1  0
 22 23  1  0
 23 24  1  0
 24 25  1  0
 24 26  2  0
  5 28  1  0
  6 29  1  0
  6 30  1  0
  7 31  1  0
 14 32  1  0
 14 33  1  0
 14 34  1  0
 15 35  1  0
 16 36  1  0
 16 37  1  0
 18 38  1  6
 21 39  1  0
 21 40  1  0
 22 41  1  0
 22 42  1  0
 23 43  1  0
 25 44  1  0
 25 45  1  0
 26 46  1  0
 26 47  1  0
M  CHG  4   8  -1   9  -1  20  -1  26   1
M  END
>  <filename_input>  (3) 
8D5D_5DK_docked.sdf

>  <pdb_id>  (3) 
8D5D_5DK

>  <pose_rank>  (3) 
2

>  <num_atoms_heavy>  (3) 
27

>  <num_torsions>  (3) 
10

>  <pose>  (3) 
[2.674842896843661, -7.895523972836218, 39.2347029815193, -1.2930927743075453, -0.7415442485774926, -6.035964084669107, 1.3890802363982973, -5.060258153170333, 4.134627051412325, -0.2712099917139412, -2.0140328336219215, -1.9907892639540659, 0.49782947507769704, -5.809466781113968, -0.08703811572153647, -4.35399890309067]

>  <energy>  (3) 
-789.289377520144

>  <inter_energy>  (3) 
-820.1872049195807

>  <intra_energy>  (3) 
40.93790183294949

>  <rmsd>  (3) 
1.67433

>  <sdf_rank>  (3) 
0

$$$$

     RDKit          3D

 47 47  0  0  0  0  0  0  0  0999 V2000
    2.0581   -7.8092   38.6800 C   0  0  0  0  0  0  0  0  0  0  0  0
    3.2914   -8.1714   38.1597 C   0  0  0  0  0  0  0  0  0  0  0  0
    3.4218   -8.3059   36.7595 C   0  0  0  0  0  0  0  0  0  0  0  0
    2.3414   -7.9617   35.9055 C   0  0  0  0  0  0  0  0  0  0  0  0
    1.1430   -7.5232   36.4785 C   0  0  0  0  0  0  0  0  0  0  0  0
    7.0385  -11.5625   37.0217 C   0  0  0  0  0  0  0  0  0  0  0  0
    4.2617   -8.3596   38.9603 O   0  0  0  0  0  0  0  0  0  0  0  0
    0.6482   -9.5736   31.4906 O   0  0  0  0  0  0  0  0  0  0  0  0
    3.0559   -8.9378   31.9462 O   0  0  0  0  0  0  0  0  0  0  0  0
    2.0352  -11.0142   32.9947 O   0  0  0  0  0  0  0  0  0  0  0  0
    1.4256   -8.7897   33.8193 O   0  0  0  0  0  0  0  0  0  0  0  0
    5.3638   -9.7619   36.6840 N   0  0  0  0  0  0  0  0  0  0  0  0
    1.8021   -9.6024   32.4726 P   0  0  2  0  0  0  0  0  0  0  0  0
    1.8190   -7.7808   40.1627 C   0  0  0  0  0  0  0  0  0  0  0  0
    4.6938   -8.8035   36.1617 C   0  0  0  0  0  0  0  0  0  0  0  0
    2.4639   -7.9994   34.4084 C   0  0  0  0  0  0  0  0  0  0  0  0
    1.0415   -7.4650   37.8064 N   0  0  0  0  0  0  0  0  0  0  0  0
    6.3636  -10.6052   36.0317 C   0  0  1  0  0  0  0  0  0  0  0  0
    7.3915   -9.7829   35.2107 C   0  0  0  0  0  0  0  0  0  0  0  0
    7.1766   -9.5925   33.9854 O   0  0  0  0  0  0  0  0  0  0  0  0
    6.5432  -11.2286   38.4156 C   0  0  0  0  0  0  0  0  0  0  0  0
    5.8146  -12.3739   39.0596 C   0  0  0  0  0  0  0  0  0  0  0  0
    6.3959  -12.6132   40.3626 N   0  0  0  0  0  0  0  0  0  0  0  0
    5.9819  -12.0019   41.4662 C   0  0  0  0  0  0  0  0  0  0  0  0
    6.5514  -12.2743   42.6175 N   0  0  0  0  0  0  0  0  0  0  0  0
    5.0407  -11.0820   41.3970 N   0  0  0  0  0  0  0  0  0  0  0  0
    8.3918   -9.3322   35.8436 O   0  0  0  0  0  0  0  0  0  0  0  0
    0.2953   -7.2303   35.8416 H   0  0  0  0  0  0  0  0  0  0  0  0
    6.7769  -12.6014   36.7724 H   0  0  0  0  0  0  0  0  0  0  0  0
    8.1319  -11.4535   36.9705 H   0  0  0  0  0  0  0  0  0  0  0  0
    5.1502   -8.6187   38.6089 H   0  0  0  0  0  0  0  0  0  0  0  0
    2.7772   -7.8947   40.6909 H   0  0  0  0  0  0  0  0  0  0  0  0
    1.3584   -6.8215   40.4415 H   0  0  0  0  0  0  0  0  0  0  0  0
    1.1463   -8.6053   40.4415 H   0  0  0  0  0  0  0  0  0  0  0  0
    5.0693   -8.3319   35.2416 H   0  0  0  0  0  0  0  0  0  0  0  0
    2.3980   -6.9732   34.0178 H   0  0  0  0  0  0  0  0  0  0  0  0
    3.4325   -8.4532   34.1515 H   0  0  0  0  0  0  0  0  0  0  0  0
    5.8228  -11.2291   35.3048 H   0  0  0  0  0  0  0  0  0  0  0  0
    7.4074  -10.9637   39.0425 H   0  0  0  0  0  0  0  0  0  0  0  0
    5.8352  -10.3916   38.3260 H   0  0  0  0  0  0  0  0  0  0  0  0
    4.7496  -12.1216   39.1691 H   0  0  0  0  0  0  0  0  0  0  0  0
    5.9035  -13.2756   38.4359 H   0  0  0  0  0  0  0  0  0  0  0  0
    7.1683  -13.2904   40.4379 H   0  0  0  0  0  0  0  0  0  0  0  0
    6.2318  -11.8013   43.4749 H   0  0  0  0  0  0  0  0  0  0  0  0
    7.3177  -12.9610   42.6633 H   0  0  0  0  0  0  0  0  0  0  0  0
    4.7198  -10.6081   42.2533 H   0  0  0  0  0  0  0  0  0  0  0  0
    4.6260  -10.8371   40.4866 H   0  0  0  0  0  0  0  0  0  0  0  0
  1  2  2  0
  1 14  1  0
  1 17  1  0
  2  3  1  0
  2  7  1  0
  3  4  2  0
  3 15  1  0
  4  5  1  0
  4 16  1  0
  5 17  2  0
 18  6  1  0
  6 21  1  0
 13  8  1  6
  9 13  1  0
 10 13  2  0
 11 13  1  0
 11 16  1  0
 12 15  2  3
 12 18  1  0
 18 19  1  0
 19 20  1  0
 19 27  2  0
 21 22  1  0
 22 23  1  0
 23 24  1  0
 24 25  1  0
 24 26  2  0
  5 28  1  0
  6 29  1  0
  6 30  1  0
  7 31  1  0
 14 32  1  0
 14 33  1  0
 14 34  1  0
 15 35  1  0
 16 36  1  0
 16 37  1  0
 18 38  1  6
 21 39  1  0
 21 40  1  0
 22 41  1  0
 22 42  1  0
 23 43  1  0
 25 44  1  0
 25 45  1  0
 26 46  1  0
 26 47  1  0
M  CHG  4   8  -1   9  -1  20  -1  26   1
M  END
>  <filename_input>  (4) 
8D5D_5DK_docked.sdf

>  <pdb_id>  (4) 
8D5D_5DK

>  <pose_rank>  (4) 
3

>  <num_atoms_heavy>  (4) 
27

>  <num_torsions>  (4) 
10

>  <pose>  (4) 
[2.0580781922261586, -7.809190610210915, 38.680023078081405, -2.216344075933598, 5.476899193143199, 1.8341938924624015, 7.077817057578115, 8.58346484478081, -2.261521876830366, -2.889631129402046, -1.1734911216254746, -0.7181171689567887, -1.4859166675579958, -5.134033653556284, 0.7258837833074618, -1.3092053839841904]

>  <energy>  (4) 
-811.1769864848332

>  <inter_energy>  (4) 
-816.7903935613914

>  <intra_energy>  (4) 
16.80747628315963

>  <rmsd>  (4) 
4.64345

>  <sdf_rank>  (4) 
0

$$$$

     RDKit          3D

 47 47  0  0  0  0  0  0  0  0999 V2000
    2.6153   -7.7002   39.2747 C   0  0  0  0  0  0  0  0  0  0  0  0
    3.8616   -8.1056   38.8217 C   0  0  0  0  0  0  0  0  0  0  0  0
    4.0144   -8.4206   37.4530 C   0  0  0  0  0  0  0  0  0  0  0  0
    2.9409   -8.2108   36.5480 C   0  0  0  0  0  0  0  0  0  0  0  0
    1.7275   -7.7222   37.0438 C   0  0  0  0  0  0  0  0  0  0  0  0
    7.5983  -11.5039   36.7031 C   0  0  0  0  0  0  0  0  0  0  0  0
    4.8231   -8.1697   39.6518 O   0  0  0  0  0  0  0  0  0  0  0  0
    0.4502   -9.5068   32.4247 O   0  0  0  0  0  0  0  0  0  0  0  0
    2.7825   -8.5561   32.1693 O   0  0  0  0  0  0  0  0  0  0  0  0
    2.4049  -10.7947   33.3090 O   0  0  0  0  0  0  0  0  0  0  0  0
    1.8200   -8.7119   34.4579 O   0  0  0  0  0  0  0  0  0  0  0  0
    5.4737  -10.2208   36.7275 N   0  0  0  0  0  0  0  0  0  0  0  0
    1.8491   -9.4107   32.9996 P   0  0  2  0  0  0  0  0  0  0  0  0
    2.3544   -7.4814   40.7378 C   0  0  0  0  0  0  0  0  0  0  0  0
    5.3026   -8.9698   36.9414 C   0  0  0  0  0  0  0  0  0  0  0  0
    3.0856   -8.4427   35.0705 C   0  0  0  0  0  0  0  0  0  0  0  0
    1.6060   -7.4918   38.3511 N   0  0  0  0  0  0  0  0  0  0  0  0
    6.4853  -10.8463   35.8780 C   0  0  1  0  0  0  0  0  0  0  0  0
    7.0415   -9.8765   34.8024 C   0  0  0  0  0  0  0  0  0  0  0  0
    6.3658   -9.6740   33.7601 O   0  0  0  0  0  0  0  0  0  0  0  0
    7.3566  -13.0010   36.7159 C   0  0  0  0  0  0  0  0  0  0  0  0
    6.9372  -13.5070   38.0670 C   0  0  0  0  0  0  0  0  0  0  0  0
    6.9780  -14.9530   38.0486 N   0  0  0  0  0  0  0  0  0  0  0  0
    6.7981  -15.6987   39.1323 C   0  0  0  0  0  0  0  0  0  0  0  0
    6.8409  -17.0078   39.0398 N   0  0  0  0  0  0  0  0  0  0  0  0
    6.6342  -15.1254   40.3076 N   0  0  0  0  0  0  0  0  0  0  0  0
    8.1539   -9.3265   35.0561 O   0  0  0  0  0  0  0  0  0  0  0  0
    0.8845   -7.5306   36.3636 H   0  0  0  0  0  0  0  0  0  0  0  0
    8.5762  -11.2884   36.2480 H   0  0  0  0  0  0  0  0  0  0  0  0
    7.5939  -11.1094   37.7299 H   0  0  0  0  0  0  0  0  0  0  0  0
    5.7207   -8.4569   39.3484 H   0  0  0  0  0  0  0  0  0  0  0  0
    3.0648   -8.0771   41.3299 H   0  0  0  0  0  0  0  0  0  0  0  0
    2.4808   -6.4153   40.9774 H   0  0  0  0  0  0  0  0  0  0  0  0
    1.3267   -7.7918   40.9774 H   0  0  0  0  0  0  0  0  0  0  0  0
    6.1337   -8.2775   36.7411 H   0  0  0  0  0  0  0  0  0  0  0  0
    3.5233   -7.5455   34.6085 H   0  0  0  0  0  0  0  0  0  0  0  0
    3.7364   -9.3165   34.9192 H   0  0  0  0  0  0  0  0  0  0  0  0
    5.9788  -11.6529   35.3277 H   0  0  0  0  0  0  0  0  0  0  0  0
    6.5642  -13.2362   35.9901 H   0  0  0  0  0  0  0  0  0  0  0  0
    8.3048  -13.4938   36.4552 H   0  0  0  0  0  0  0  0  0  0  0  0
    7.6255  -13.1261   38.8359 H   0  0  0  0  0  0  0  0  0  0  0  0
    5.9190  -13.1616   38.2995 H   0  0  0  0  0  0  0  0  0  0  0  0
    7.1552  -15.4269   37.1514 H   0  0  0  0  0  0  0  0  0  0  0  0
    6.7015  -17.5883   39.8792 H   0  0  0  0  0  0  0  0  0  0  0  0
    7.0137  -17.4543   38.1278 H   0  0  0  0  0  0  0  0  0  0  0  0
    6.4946  -15.7043   41.1480 H   0  0  0  0  0  0  0  0  0  0  0  0
    6.6456  -14.0985   40.3857 H   0  0  0  0  0  0  0  0  0  0  0  0
  1  2  2  0
  1 14  1  0
  1 17  1  0
  2  3  1  0
  2  7  1  0
  3  4  2  0
  3 15  1  0
  4  5  1  0
  4 16  1  0
  5 17  2  0
 18  6  1  0
  6 21  1  0
 13  8  1  6
  9 13  1  0
 10 13  2  0
 11 13  1  0
 11 16  1  0
 12 15  2  3
 12 18  1  0
 18 19  1  0
 19 20  1  0
 19 27  2  0
 21 22  1  0
 22 23  1  0
 23 24  1  0
 24 25  1  0
 24 26  2  0
  5 28  1  0
  6 29  1  0
  6 30  1  0
  7 31  1  0
 14 32  1  0
 14 33  1  0
 14 34  1  0
 15 35  1  0
 16 36  1  0
 16 37  1  0
 18 38  1  6
 21 39  1  0
 21 40  1  0
 22 41  1  0
 22 42  1  0
 23 43  1  0
 25 44  1  0
 25 45  1  0
 26 46  1  0
 26 47  1  0
M  CHG  4   8  -1   9  -1  20  -1  26   1
M  END
>  <filename_input>  (5) 
8D5D_5DK_docked.sdf

>  <pdb_id>  (5) 
8D5D_5DK

>  <pose_rank>  (5) 
4

>  <num_atoms_heavy>  (5) 
27

>  <num_torsions>  (5) 
10

>  <pose>  (5) 
[2.6152786467979348, -7.700165924255658, 39.274727582651614, 4.249380853133912, 4.430124103544428, 0.25645928987990707, -4.452636051561484, -5.189853834517106, -2.0262248840136716, -1.0019196595557402, 1.1139338426935008, 6.661045870186041, -0.020985554085057086, -4.626302595910951, 0.46281806222476574, -1.892390920064988]

>  <energy>  (5) 
-782.6794582532181

>  <inter_energy>  (5) 
-775.0696093535342

>  <intra_energy>  (5) 
4.262360216575114

>  <rmsd>  (5) 
4.363

>  <sdf_rank>  (5) 
0

$$$$

     RDKit          3D

 47 47  0  0  0  0  0  0  0  0999 V2000
    7.7228  -13.1600   36.5895 C   0  0  0  0  0  0  0  0  0  0  0  0
    6.8382  -12.1144   36.3721 C   0  0  0  0  0  0  0  0  0  0  0  0
    7.1705  -11.1364   35.4084 C   0  0  0  0  0  0  0  0  0  0  0  0
    8.3289  -11.2925   34.6028 C   0  0  0  0  0  0  0  0  0  0  0  0
    9.1460  -12.4094   34.8071 C   0  0  0  0  0  0  0  0  0  0  0  0
    3.9355   -8.4959   36.3265 C   0  0  0  0  0  0  0  0  0  0  0  0
    5.7567  -12.0792   37.0405 O   0  0  0  0  0  0  0  0  0  0  0  0
   12.0181  -10.2874   32.0018 O   0  0  0  0  0  0  0  0  0  0  0  0
    9.7176   -9.6779   31.1385 O   0  0  0  0  0  0  0  0  0  0  0  0
   11.1004   -8.0045   32.4577 O   0  0  0  0  0  0  0  0  0  0  0  0
   10.0327   -9.8920   33.5968 O   0  0  0  0  0  0  0  0  0  0  0  0
    5.1166  -10.0154   34.7590 N   0  0  0  0  0  0  0  0  0  0  0  0
   10.7604   -9.4694   32.2156 P   0  0  2  0  0  0  0  0  0  0  0  0
    7.4933  -14.1549   37.6912 C   0  0  0  0  0  0  0  0  0  0  0  0
    6.3084   -9.9345   35.2207 C   0  0  0  0  0  0  0  0  0  0  0  0
    8.6723  -10.3280   33.5030 C   0  0  0  0  0  0  0  0  0  0  0  0
    8.8284  -13.2795   35.7657 N   0  0  0  0  0  0  0  0  0  0  0  0
    4.0434   -9.0324   34.8939 C   0  0  1  0  0  0  0  0  0  0  0  0
    2.6859   -9.5558   34.3551 C   0  0  0  0  0  0  0  0  0  0  0  0
    1.6270   -9.2140   34.9431 O   0  0  0  0  0  0  0  0  0  0  0  0
    4.4058   -9.5816   37.2753 C   0  0  0  0  0  0  0  0  0  0  0  0
    4.9036   -9.0314   38.5817 C   0  0  0  0  0  0  0  0  0  0  0  0
    3.7704   -8.5380   39.3336 N   0  0  0  0  0  0  0  0  0  0  0  0
    3.7883   -8.3748   40.6512 C   0  0  0  0  0  0  0  0  0  0  0  0
    2.7242   -7.9146   41.2676 N   0  0  0  0  0  0  0  0  0  0  0  0
    4.8515   -8.7281   41.3451 N   0  0  0  0  0  0  0  0  0  0  0  0
    2.7310  -10.2938   33.3267 O   0  0  0  0  0  0  0  0  0  0  0  0
   10.0391  -12.5676   34.1847 H   0  0  0  0  0  0  0  0  0  0  0  0
    4.5687   -7.6034   36.4387 H   0  0  0  0  0  0  0  0  0  0  0  0
    2.8950   -8.2191   36.5515 H   0  0  0  0  0  0  0  0  0  0  0  0
    5.1119  -11.3412   36.9002 H   0  0  0  0  0  0  0  0  0  0  0  0
    7.6083  -13.6566   38.6651 H   0  0  0  0  0  0  0  0  0  0  0  0
    6.4766  -14.5664   37.6077 H   0  0  0  0  0  0  0  0  0  0  0  0
    8.2269  -14.9703   37.6077 H   0  0  0  0  0  0  0  0  0  0  0  0
    6.7093   -8.9455   35.4877 H   0  0  0  0  0  0  0  0  0  0  0  0
    8.5212  -10.8232   32.5325 H   0  0  0  0  0  0  0  0  0  0  0  0
    8.0193   -9.4479   33.5979 H   0  0  0  0  0  0  0  0  0  0  0  0
    4.3160   -8.1795   34.2548 H   0  0  0  0  0  0  0  0  0  0  0  0
    3.5650  -10.2616   37.4769 H   0  0  0  0  0  0  0  0  0  0  0  0
    5.2444  -10.1052   36.7930 H   0  0  0  0  0  0  0  0  0  0  0  0
    5.4089   -9.8258   39.1505 H   0  0  0  0  0  0  0  0  0  0  0  0
    5.6188   -8.2157   38.3991 H   0  0  0  0  0  0  0  0  0  0  0  0
    2.9081   -8.3019   38.8222 H   0  0  0  0  0  0  0  0  0  0  0  0
    2.7358   -7.7872   42.2896 H   0  0  0  0  0  0  0  0  0  0  0  0
    1.8778   -7.6809   40.7291 H   0  0  0  0  0  0  0  0  0  0  0  0
    4.8649   -8.6014   42.3672 H   0  0  0  0  0  0  0  0  0  0  0  0
    5.6691   -9.1310   40.8653 H   0  0  0  0  0  0  0  0  0  0  0  0
  1  2  2  0
  1 14  1  0
  1 17  1  0
  2  3  1  0
  2  7  1  0
  3  4  2  0
  3 15  1  0
  4  5  1  0
  4 16  1  0
  5 17  2  0
 18  6  1  0
  6 21  1  0
 13  8  1  6
  9 13  1  0
 10 13  2  0
 11 13  1  0
 11 16  1  0
 12 15  2  3
 12 18  1  0
 18 19  1  0
 19 20  1  0
 19 27  2  0
 21 22  1  0
 22 23  1  0
 23 24  1  0
 24 25  1  0
 24 26  2  0
  5 28  1  0
  6 29  1  0
  6 30  1  0
  7 31  1  0
 14 32  1  0
 14 33  1  0
 14 34  1  0
 15 35  1  0
 16 36  1  0
 16 37  1  0
 18 38  1  6
 21 39  1  0
 21 40  1  0
 22 41  1  0
 22 42  1  0
 23 43  1  0
 25 44  1  0
 25 45  1  0
 26 46  1  0
 26 47  1  0
M  CHG  4   8  -1   9  -1  20  -1  26   1
M  END
>  <filename_input>  (6) 
8D5D_5DK_docked.sdf

>  <pdb_id>  (6) 
8D5D_5DK

>  <pose_rank>  (6) 
5

>  <num_atoms_heavy>  (6) 
27

>  <num_torsions>  (6) 
10

>  <pose>  (6) 
[7.722844961076135, -13.159982006974296, 36.5894906527665, 0.17435153758734223, 1.1908820721437217, -3.283300891324206, -1.0765532011154668, -1.538402305757562, -4.395833374397304, 2.9791110692416605, -0.5311454723451645, -1.7104636266244795, -0.26828955818374683, 1.2125352406118817, -0.34596947763229596, -0.9961044223698924]

>  <energy>  (6) 
-588.7230601087045

>  <inter_energy>  (6) 
-638.6519918700031

>  <intra_energy>  (6) 
51.012443430027936

>  <rmsd>  (6) 
7.71747

>  <sdf_rank>  (6) 
0

$$$$

     RDKit          3D

 47 47  0  0  0  0  0  0  0  0999 V2000
   11.1150  -10.0860   32.3780 C   0  0  0  0  0  0  0  0  0  0  0  0
   10.1914   -9.6496   33.3158 C   0  0  0  0  0  0  0  0  0  0  0  0
    9.3820  -10.6083   33.9650 C   0  0  0  0  0  0  0  0  0  0  0  0
    9.5979  -11.9936   33.7422 C   0  0  0  0  0  0  0  0  0  0  0  0
   10.5987  -12.3838   32.8461 C   0  0  0  0  0  0  0  0  0  0  0  0
    5.3568   -8.5120   35.5000 C   0  0  0  0  0  0  0  0  0  0  0  0
   10.1133   -8.4047   33.5642 O   0  0  0  0  0  0  0  0  0  0  0  0
    7.9164  -15.7995   34.5337 O   0  0  0  0  0  0  0  0  0  0  0  0
   10.1915  -16.4267   35.4500 O   0  0  0  0  0  0  0  0  0  0  0  0
    8.5121  -15.1673   36.8804 O   0  0  0  0  0  0  0  0  0  0  0  0
    9.6991  -14.0178   35.0721 O   0  0  0  0  0  0  0  0  0  0  0  0
    7.1015   -9.9622   34.4930 N   0  0  0  0  0  0  0  0  0  0  0  0
    9.0445  -15.4396   35.4796 P   0  0  2  0  0  0  0  0  0  0  0  0
   11.9088   -9.1097   31.5575 C   0  0  0  0  0  0  0  0  0  0  0  0
    8.2980  -10.1797   34.8946 C   0  0  0  0  0  0  0  0  0  0  0  0
    8.8255  -13.0507   34.4796 C   0  0  0  0  0  0  0  0  0  0  0  0
   11.3021  -11.4469   32.2103 N   0  0  0  0  0  0  0  0  0  0  0  0
    5.8839   -9.9384   35.3012 C   0  0  1  0  0  0  0  0  0  0  0  0
    6.0451  -10.7011   36.6425 C   0  0  0  0  0  0  0  0  0  0  0  0
    6.4722  -10.0768   37.6483 O   0  0  0  0  0  0  0  0  0  0  0  0
    3.9707   -8.6000   36.1090 C   0  0  0  0  0  0  0  0  0  0  0  0
    3.8624   -7.8545   37.4089 C   0  0  0  0  0  0  0  0  0  0  0  0
    2.4635   -7.6026   37.6784 N   0  0  0  0  0  0  0  0  0  0  0  0
    1.9793   -7.4291   38.9026 C   0  0  0  0  0  0  0  0  0  0  0  0
    0.6982   -7.1963   39.0721 N   0  0  0  0  0  0  0  0  0  0  0  0
    2.7724   -7.5474   39.9484 N   0  0  0  0  0  0  0  0  0  0  0  0
    5.7127  -11.9234   36.6429 O   0  0  0  0  0  0  0  0  0  0  0  0
   10.8026  -13.4501   32.6685 H   0  0  0  0  0  0  0  0  0  0  0  0
    6.0259   -7.9584   36.1752 H   0  0  0  0  0  0  0  0  0  0  0  0
    5.3155   -7.9842   34.5357 H   0  0  0  0  0  0  0  0  0  0  0  0
    9.4604   -8.0729   34.2304 H   0  0  0  0  0  0  0  0  0  0  0  0
   12.4599   -8.4319   32.2260 H   0  0  0  0  0  0  0  0  0  0  0  0
   12.6208   -9.6578   30.9229 H   0  0  0  0  0  0  0  0  0  0  0  0
   11.2270   -8.5245   30.9229 H   0  0  0  0  0  0  0  0  0  0  0  0
    8.5337  -10.0458   35.9607 H   0  0  0  0  0  0  0  0  0  0  0  0
    8.2310  -12.5723   35.2720 H   0  0  0  0  0  0  0  0  0  0  0  0
    8.1731  -13.5678   33.7606 H   0  0  0  0  0  0  0  0  0  0  0  0
    5.1174  -10.4839   34.7312 H   0  0  0  0  0  0  0  0  0  0  0  0
    3.2461   -8.1760   35.3983 H   0  0  0  0  0  0  0  0  0  0  0  0
    3.7640   -9.6606   36.3150 H   0  0  0  0  0  0  0  0  0  0  0  0
    4.2937   -8.4591   38.2204 H   0  0  0  0  0  0  0  0  0  0  0  0
    4.4111   -6.9033   37.3447 H   0  0  0  0  0  0  0  0  0  0  0  0
    1.8117   -7.5557   36.8823 H   0  0  0  0  0  0  0  0  0  0  0  0
    0.3204   -7.0614   40.0207 H   0  0  0  0  0  0  0  0  0  0  0  0
    0.0711   -7.1486   38.2564 H   0  0  0  0  0  0  0  0  0  0  0  0
    2.3963   -7.4127   40.8977 H   0  0  0  0  0  0  0  0  0  0  0  0
    3.7684   -7.7745   39.8164 H   0  0  0  0  0  0  0  0  0  0  0  0
  1  2  2  0
  1 14  1  0
  1 17  1  0
  2  3  1  0
  2  7  1  0
  3  4  2  0
  3 15  1  0
  4  5  1  0
  4 16  1  0
  5 17  2  0
 18  6  1  0
  6 21  1  0
 13  8  1  6
  9 13  1  0
 10 13  2  0
 11 13  1  0
 11 16  1  0
 12 15  2  3
 12 18  1  0
 18 19  1  0
 19 20  1  0
 19 27  2  0
 21 22  1  0
 22 23  1  0
 23 24  1  0
 24 25  1  0
 24 26  2  0
  5 28  1  0
  6 29  1  0
  6 30  1  0
  7 31  1  0
 14 32  1  0
 14 33  1  0
 14 34  1  0
 15 35  1  0
 16 36  1  0
 16 37  1  0
 18 38  1  6
 21 39  1  0
 21 40  1  0
 22 41  1  0
 22 42  1  0
 23 43  1  0
 25 44  1  0
 25 45  1  0
 26 46  1  0
 26 47  1  0
M  CHG  4   8  -1   9  -1  20  -1  26   1
M  END
>  <filename_input>  (7) 
8D5D_5DK_docked.sdf

>  <pdb_id>  (7) 
8D5D_5DK

>  <pose_rank>  (7) 
6

>  <num_atoms_heavy>  (7) 
27

>  <num_torsions>  (7) 
10

>  <pose>  (7) 
[11.115010218152294, -10.086000075126968, 32.37799290657978, 1.952503622895314, 2.129401006524368, 1.5928386248183368, -4.615569385488423, 1.1109626532721346, 0.9142849229041133, 0.16354818927880826, -7.377942007617044, -0.14540169910087064, -0.3423973507642583, 2.973789814354369, 0.48162111300933014, 1.703635653772847]

>  <energy>  (7) 
-702.0937654134099

>  <inter_energy>  (7) 
-708.0983812762867

>  <intra_energy>  (7) 
7.674455377212836

>  <rmsd>  (7) 
8.71947

>  <sdf_rank>  (7) 
0

$$$$

     RDKit          3D

 47 47  0  0  0  0  0  0  0  0999 V2000
   10.3113  -10.9945   32.6557 C   0  0  0  0  0  0  0  0  0  0  0  0
    9.3537  -10.0121   32.8582 C   0  0  0  0  0  0  0  0  0  0  0  0
    8.3296  -10.2499   33.8018 C   0  0  0  0  0  0  0  0  0  0  0  0
    8.3557  -11.4209   34.6039 C   0  0  0  0  0  0  0  0  0  0  0  0
    9.3906  -12.3431   34.4162 C   0  0  0  0  0  0  0  0  0  0  0  0
    4.9583   -8.4974   35.7576 C   0  0  0  0  0  0  0  0  0  0  0  0
    9.4377   -8.9300   32.1951 O   0  0  0  0  0  0  0  0  0  0  0  0
    7.2509  -15.0112   36.4833 O   0  0  0  0  0  0  0  0  0  0  0  0
    7.1537  -13.8120   38.7107 O   0  0  0  0  0  0  0  0  0  0  0  0
    5.5296  -13.2316   36.8458 O   0  0  0  0  0  0  0  0  0  0  0  0
    7.8693  -12.5195   36.7093 O   0  0  0  0  0  0  0  0  0  0  0  0
    5.9899   -9.6000   33.7876 N   0  0  0  0  0  0  0  0  0  0  0  0
    6.9211  -13.7272   37.2175 P   0  0  2  0  0  0  0  0  0  0  0  0
   11.3447  -10.8600   31.5739 C   0  0  0  0  0  0  0  0  0  0  0  0
    7.2148   -9.2745   33.9716 C   0  0  0  0  0  0  0  0  0  0  0  0
    7.3413  -11.6716   35.6837 C   0  0  0  0  0  0  0  0  0  0  0  0
   10.3058  -12.1092   33.4756 N   0  0  0  0  0  0  0  0  0  0  0  0
    4.8028   -8.9101   34.2887 C   0  0  1  0  0  0  0  0  0  0  0  0
    3.4980   -9.7099   34.0346 C   0  0  0  0  0  0  0  0  0  0  0  0
    3.2855  -10.7536   34.7050 O   0  0  0  0  0  0  0  0  0  0  0  0
    3.6103   -8.0168   36.2596 C   0  0  0  0  0  0  0  0  0  0  0  0
    3.5274   -7.9930   37.7595 C   0  0  0  0  0  0  0  0  0  0  0  0
    2.1348   -8.0703   38.1436 N   0  0  0  0  0  0  0  0  0  0  0  0
    1.7087   -7.8442   39.3806 C   0  0  0  0  0  0  0  0  0  0  0  0
    0.4273   -7.9245   39.6558 N   0  0  0  0  0  0  0  0  0  0  0  0
    2.5756   -7.5963   40.3418 N   0  0  0  0  0  0  0  0  0  0  0  0
    2.7067   -9.2414   33.1636 O   0  0  0  0  0  0  0  0  0  0  0  0
    9.4485  -13.2495   35.0366 H   0  0  0  0  0  0  0  0  0  0  0  0
    5.2918   -9.3597   36.3534 H   0  0  0  0  0  0  0  0  0  0  0  0
    5.7061   -7.6960   35.8501 H   0  0  0  0  0  0  0  0  0  0  0  0
    8.7640   -8.2163   32.3251 H   0  0  0  0  0  0  0  0  0  0  0  0
   12.3376  -10.7308   32.0294 H   0  0  0  0  0  0  0  0  0  0  0  0
   11.3426  -11.7660   30.9501 H   0  0  0  0  0  0  0  0  0  0  0  0
   11.1108   -9.9847   30.9501 H   0  0  0  0  0  0  0  0  0  0  0  0
    7.4522   -8.2412   34.2646 H   0  0  0  0  0  0  0  0  0  0  0  0
    7.0485  -10.7098   36.1300 H   0  0  0  0  0  0  0  0  0  0  0  0
    6.4724  -12.1732   35.2329 H   0  0  0  0  0  0  0  0  0  0  0  0
    4.7091   -7.9818   33.7060 H   0  0  0  0  0  0  0  0  0  0  0  0
    3.4358   -6.9989   35.8809 H   0  0  0  0  0  0  0  0  0  0  0  0
    2.8485   -8.7215   35.8950 H   0  0  0  0  0  0  0  0  0  0  0  0
    4.0751   -8.8516   38.1751 H   0  0  0  0  0  0  0  0  0  0  0  0
    3.9744   -7.0656   38.1470 H   0  0  0  0  0  0  0  0  0  0  0  0
    1.4402   -8.3124   37.4225 H   0  0  0  0  0  0  0  0  0  0  0  0
    0.0945   -7.7495   40.6147 H   0  0  0  0  0  0  0  0  0  0  0  0
   -0.2451   -8.1625   38.9127 H   0  0  0  0  0  0  0  0  0  0  0  0
    2.2446   -7.4209   41.3012 H   0  0  0  0  0  0  0  0  0  0  0  0
    3.5841   -7.5778   40.1335 H   0  0  0  0  0  0  0  0  0  0  0  0
  1  2  2  0
  1 14  1  0
  1 17  1  0
  2  3  1  0
  2  7  1  0
  3  4  2  0
  3 15  1  0
  4  5  1  0
  4 16  1  0
  5 17  2  0
 18  6  1  0
  6 21  1  0
 13  8  1  6
  9 13  1  0
 10 13  2  0
 11 13  1  0
 11 16  1  0
 12 15  2  3
 12 18  1  0
 18 19  1  0
 19 20  1  0
 19 27  2  0
 21 22  1  0
 22 23  1  0
 23 24  1  0
 24 25  1  0
 24 26  2  0
  5 28  1  0
  6 29  1  0
  6 30  1  0
  7 31  1  0
 14 32  1  0
 14 33  1  0
 14 34  1  0
 15 35  1  0
 16 36  1  0
 16 37  1  0
 18 38  1  6
 21 39  1  0
 21 40  1  0
 22 41  1  0
 22 42  1  0
 23 43  1  0
 25 44  1  0
 25 45  1  0
 26 46  1  0
 26 47  1  0
M  CHG  4   8  -1   9  -1  20  -1  26   1
M  END
>  <filename_input>  (8) 
8D5D_5DK_docked.sdf

>  <pdb_id>  (8) 
8D5D_5DK

>  <pose_rank>  (8) 
7

>  <num_atoms_heavy>  (8) 
27

>  <num_torsions>  (8) 
10

>  <pose>  (8) 
[10.311258046276091, -10.9944553962276, 32.655666278029116, 1.5585118478763318, 2.069614616437527, 0.740914570618097, 8.47514936407685, 11.046374231198035, 0.6135007329051804, 13.0886385920005, 5.8709117273244, 0.5956420974553581, 0.31275516775556067, -22.592806078575983, -5.338286520530629, 2.8138776661420613]

>  <energy>  (8) 
-662.7140589722909

>  <inter_energy>  (8) 
-682.1547725613287

>  <intra_energy>  (8) 
16.59258624828455

>  <rmsd>  (8) 
8.37177

>  <sdf_rank>  (8) 
0

$$$$

     RDKit          3D

 47 47  0  0  0  0  0  0  0  0999 V2000
    1.8479   -9.0080   33.9158 C   0  0  0  0  0  0  0  0  0  0  0  0
    3.1139   -9.3062   34.3966 C   0  0  0  0  0  0  0  0  0  0  0  0
    3.4946   -8.8002   35.6594 C   0  0  0  0  0  0  0  0  0  0  0  0
    2.5541   -8.1024   36.4619 C   0  0  0  0  0  0  0  0  0  0  0  0
    1.2631   -7.8985   35.9634 C   0  0  0  0  0  0  0  0  0  0  0  0
    7.6763   -9.7782   34.8326 C   0  0  0  0  0  0  0  0  0  0  0  0
    3.8820  -10.0316   33.6884 O   0  0  0  0  0  0  0  0  0  0  0  0
    4.5887   -7.1416   40.4135 O   0  0  0  0  0  0  0  0  0  0  0  0
    2.3305   -8.2364   40.7459 O   0  0  0  0  0  0  0  0  0  0  0  0
    4.4537   -9.6281   40.6595 O   0  0  0  0  0  0  0  0  0  0  0  0
    3.5355   -8.6510   38.6096 O   0  0  0  0  0  0  0  0  0  0  0  0
    5.5157  -10.0992   36.0116 N   0  0  0  0  0  0  0  0  0  0  0  0
    3.7319   -8.3715   40.1905 P   0  0  2  0  0  0  0  0  0  0  0  0
    1.4323   -9.4011   32.5269 C   0  0  0  0  0  0  0  0  0  0  0  0
    4.8825   -8.9970   36.1673 C   0  0  0  0  0  0  0  0  0  0  0  0
    2.8848   -7.6276   37.8487 C   0  0  0  0  0  0  0  0  0  0  0  0
    0.9609   -8.3418   34.7432 N   0  0  0  0  0  0  0  0  0  0  0  0
    6.9604  -10.3108   36.0799 C   0  0  1  0  0  0  0  0  0  0  0  0
    7.3319  -11.7847   36.3904 C   0  0  0  0  0  0  0  0  0  0  0  0
    8.4434  -12.2260   35.9984 O   0  0  0  0  0  0  0  0  0  0  0  0
    8.9944  -10.5149   34.6924 C   0  0  0  0  0  0  0  0  0  0  0  0
    9.4713  -10.5801   33.2692 C   0  0  0  0  0  0  0  0  0  0  0  0
   10.0359   -9.2961   32.9150 N   0  0  0  0  0  0  0  0  0  0  0  0
   11.0811   -9.1599   32.1075 C   0  0  0  0  0  0  0  0  0  0  0  0
   11.5360   -7.9614   31.8232 N   0  0  0  0  0  0  0  0  0  0  0  0
   11.6957  -10.2272   31.6387 N   0  0  0  0  0  0  0  0  0  0  0  0
    6.4826  -12.4569   37.0471 O   0  0  0  0  0  0  0  0  0  0  0  0
    0.5071   -7.3791   36.5706 H   0  0  0  0  0  0  0  0  0  0  0  0
    7.0545   -9.9546   33.9425 H   0  0  0  0  0  0  0  0  0  0  0  0
    7.8535   -8.6968   34.9287 H   0  0  0  0  0  0  0  0  0  0  0  0
    4.7898  -10.2559   34.0137 H   0  0  0  0  0  0  0  0  0  0  0  0
    0.6343  -10.1561   32.5827 H   0  0  0  0  0  0  0  0  0  0  0  0
    1.0620   -8.5151   31.9904 H   0  0  0  0  0  0  0  0  0  0  0  0
    2.2965   -9.8200   31.9904 H   0  0  0  0  0  0  0  0  0  0  0  0
    5.3790   -8.1681   36.6930 H   0  0  0  0  0  0  0  0  0  0  0  0
    3.5510   -6.7551   37.7789 H   0  0  0  0  0  0  0  0  0  0  0  0
    1.9460   -7.3622   38.3569 H   0  0  0  0  0  0  0  0  0  0  0  0
    7.3248   -9.7190   36.9326 H   0  0  0  0  0  0  0  0  0  0  0  0
    9.7541   -9.9956   35.2951 H   0  0  0  0  0  0  0  0  0  0  0  0
    8.8376  -11.5471   35.0389 H   0  0  0  0  0  0  0  0  0  0  0  0
   10.2381  -11.3626   33.1703 H   0  0  0  0  0  0  0  0  0  0  0  0
    8.6312  -10.8197   32.6008 H   0  0  0  0  0  0  0  0  0  0  0  0
    9.6064   -8.4465   33.3083 H   0  0  0  0  0  0  0  0  0  0  0  0
   12.3466   -7.8533   31.1971 H   0  0  0  0  0  0  0  0  0  0  0  0
   11.0821   -7.1293   32.2264 H   0  0  0  0  0  0  0  0  0  0  0  0
   12.5065  -10.1210   31.0123 H   0  0  0  0  0  0  0  0  0  0  0  0
   11.3654  -11.1675   31.8985 H   0  0  0  0  0  0  0  0  0  0  0  0
  1  2  2  0
  1 14  1  0
  1 17  1  0
  2  3  1  0
  2  7  1  0
  3  4  2  0
  3 15  1  0
  4  5  1  0
  4 16  1  0
  5 17  2  0
 18  6  1  0
  6 21  1  0
 13  8  1  6
  9 13  1  0
 10 13  2  0
 11 13  1  0
 11 16  1  0
 12 15  2  3
 12 18  1  0
 18 19  1  0
 19 20  1  0
 19 27  2  0
 21 22  1  0
 22 23  1  0
 23 24  1  0
 24 25  1  0
 24 26  2  0
  5 28  1  0
  6 29  1  0
  6 30  1  0
  7 31  1  0
 14 32  1  0
 14 33  1  0
 14 34  1  0
 15 35  1  0
 16 36  1  0
 16 37  1  0
 18 38  1  1
 21 39  1  0
 21 40  1  0
 22 41  1  0
 22 42  1  0
 23 43  1  0
 25 44  1  0
 25 45  1  0
 26 46  1  0
 26 47  1  0
M  CHG  4   8  -1   9  -1  20  -1  26   1
M  END
>  <filename_input>  (9) 
8D5D_5DK_docked.sdf

>  <pdb_id>  (9) 
8D5D_5DK

>  <pose_rank>  (9) 
8

>  <num_atoms_heavy>  (9) 
27

>  <num_torsions>  (9) 
10

>  <pose>  (9) 
[1.8478636534515744, -9.008014996086407, 33.915819233830696, 2.666503013669544, -0.9030157347607279, -0.13308765505023928, -6.900911202251142, 4.2301827327269255, 2.044840605017545, 7.043331205591474, -0.566816845938424, -1.6005955046397524, -0.5095339913253305, -1.8698436023283287, 0.3203467688134209, 0.08640233475149676]

>  <energy>  (9) 
-656.2472305181021

>  <inter_energy>  (9) 
-743.6041253145135

>  <intra_energy>  (9) 
90.60038184730467

>  <rmsd>  (9) 
4.271

>  <sdf_rank>  (9) 
0

$$$$

     RDKit          3D

 47 47  0  0  0  0  0  0  0  0999 V2000
    2.2672   -7.4426   39.3732 C   0  0  0  0  0  0  0  0  0  0  0  0
    3.1013   -7.8345   38.3370 C   0  0  0  0  0  0  0  0  0  0  0  0
    4.1992   -8.6729   38.6325 C   0  0  0  0  0  0  0  0  0  0  0  0
    4.3684   -9.1926   39.9427 C   0  0  0  0  0  0  0  0  0  0  0  0
    3.4508   -8.8307   40.9346 C   0  0  0  0  0  0  0  0  0  0  0  0
    6.9945   -9.5204   35.3762 C   0  0  0  0  0  0  0  0  0  0  0  0
    2.8423   -7.4333   37.1582 O   0  0  0  0  0  0  0  0  0  0  0  0
    6.6207  -13.4498   39.7371 O   0  0  0  0  0  0  0  0  0  0  0  0
    6.9895  -11.8832   41.6912 O   0  0  0  0  0  0  0  0  0  0  0  0
    5.0350  -13.5056   41.6721 O   0  0  0  0  0  0  0  0  0  0  0  0
    4.9980  -11.5136   40.2471 O   0  0  0  0  0  0  0  0  0  0  0  0
    5.0253  -10.0324   36.7978 N   0  0  0  0  0  0  0  0  0  0  0  0
    5.9853  -12.6431   40.8516 P   0  0  2  0  0  0  0  0  0  0  0  0
    1.1654   -6.4466   39.1487 C   0  0  0  0  0  0  0  0  0  0  0  0
    5.1881   -9.0271   37.5743 C   0  0  0  0  0  0  0  0  0  0  0  0
    5.4660  -10.1611   40.2817 C   0  0  0  0  0  0  0  0  0  0  0  0
    2.4615   -7.9913   40.6287 N   0  0  0  0  0  0  0  0  0  0  0  0
    5.6600  -10.2656   35.5020 C   0  0  1  0  0  0  0  0  0  0  0  0
    4.7073   -9.9766   34.3122 C   0  0  0  0  0  0  0  0  0  0  0  0
    5.1962   -9.8541   33.1590 O   0  0  0  0  0  0  0  0  0  0  0  0
    8.0237  -10.4837   34.8171 C   0  0  0  0  0  0  0  0  0  0  0  0
    9.2753   -9.7902   34.3591 C   0  0  0  0  0  0  0  0  0  0  0  0
    9.8044  -10.5044   33.2176 N   0  0  0  0  0  0  0  0  0  0  0  0
   10.6233   -9.9516   32.3305 C   0  0  0  0  0  0  0  0  0  0  0  0
   11.0712  -10.6630   31.3219 N   0  0  0  0  0  0  0  0  0  0  0  0
   10.9398   -8.6762   32.4304 N   0  0  0  0  0  0  0  0  0  0  0  0
    3.4720   -9.8986   34.5814 O   0  0  0  0  0  0  0  0  0  0  0  0
    3.5445   -9.2335   41.9539 H   0  0  0  0  0  0  0  0  0  0  0  0
    6.8795   -8.6628   34.6971 H   0  0  0  0  0  0  0  0  0  0  0  0
    7.3166   -9.1488   36.3601 H   0  0  0  0  0  0  0  0  0  0  0  0
    3.4255   -7.7018   36.4046 H   0  0  0  0  0  0  0  0  0  0  0  0
    0.7814   -6.0996   40.1193 H   0  0  0  0  0  0  0  0  0  0  0  0
    1.5562   -5.5892   38.5811 H   0  0  0  0  0  0  0  0  0  0  0  0
    0.3516   -6.9218   38.5811 H   0  0  0  0  0  0  0  0  0  0  0  0
    6.0871   -8.4043   37.4567 H   0  0  0  0  0  0  0  0  0  0  0  0
    6.2824  -10.0461   39.5535 H   0  0  0  0  0  0  0  0  0  0  0  0
    5.8183   -9.9425   41.3006 H   0  0  0  0  0  0  0  0  0  0  0  0
    5.8902  -11.3401   35.4534 H   0  0  0  0  0  0  0  0  0  0  0  0
    8.2894  -11.2091   35.6002 H   0  0  0  0  0  0  0  0  0  0  0  0
    7.5770  -10.9774   33.9415 H   0  0  0  0  0  0  0  0  0  0  0  0
    9.0419   -8.7540   34.0729 H   0  0  0  0  0  0  0  0  0  0  0  0
   10.0170   -9.7756   35.1714 H   0  0  0  0  0  0  0  0  0  0  0  0
    9.5326  -11.4892   33.0866 H   0  0  0  0  0  0  0  0  0  0  0  0
   11.7066  -10.2363   30.6326 H   0  0  0  0  0  0  0  0  0  0  0  0
   10.7872  -11.6478   31.2200 H   0  0  0  0  0  0  0  0  0  0  0  0
   11.5751   -8.2478   31.7421 H   0  0  0  0  0  0  0  0  0  0  0  0
   10.5519   -8.1078   33.1968 H   0  0  0  0  0  0  0  0  0  0  0  0
  1  2  2  0
  1 14  1  0
  1 17  1  0
  2  3  1  0
  2  7  1  0
  3  4  2  0
  3 15  1  0
  4  5  1  0
  4 16  1  0
  5 17  2  0
 18  6  1  0
  6 21  1  0
 13  8  1  6
  9 13  1  0
 10 13  2  0
 11 13  1  0
 11 16  1  0
 12 15  2  3
 12 18  1  0
 18 19  1  0
 19 20  1  0
 19 27  2  0
 21 22  1  0
 22 23  1  0
 23 24  1  0
 24 25  1  0
 24 26  2  0
  5 28  1  0
  6 29  1  0
  6 30  1  0
  7 31  1  0
 14 32  1  0
 14 33  1  0
 14 34  1  0
 15 35  1  0
 16 36  1  0
 16 37  1  0
 18 38  1  1
 21 39  1  0
 21 40  1  0
 22 41  1  0
 22 42  1  0
 23 43  1  0
 25 44  1  0
 25 45  1  0
 26 46  1  0
 26 47  1  0
M  CHG  4   8  -1   9  -1  20  -1  26   1
M  END
>  <filename_input>  (10) 
8D5D_5DK_docked.sdf

>  <pdb_id>  (10) 
8D5D_5DK

>  <pose_rank>  (10) 
9

>  <num_atoms_heavy>  (10) 
27

>  <num_torsions>  (10) 
10

>  <pose>  (10) 
[2.267181180446059, -7.442616151803693, 39.37321330826759, 2.660875107172016, -1.14598792540405, -2.142655898242249, 4.843257784286813, -0.31834684851175565, 2.2409683742661275, -0.4614049827117325, -0.32952534283124557, 0.7739391276666078, -0.27746503907456227, 3.5340177833843742, 0.34060103359506066, -0.6907565964449044]

>  <energy>  (10) 
-637.7507645097677

>  <inter_energy>  (10) 
-640.9834516073317

>  <intra_energy>  (10) 
3.377574659296866

>  <rmsd>  (10) 
4.82274

>  <sdf_rank>  (10) 
0

$$$$

     RDKit          3D

 47 47  0  0  0  0  0  0  0  0999 V2000
    8.3519  -10.9142   34.4433 C   0  0  0  0  0  0  0  0  0  0  0  0
    7.8509  -11.1258   35.7189 C   0  0  0  0  0  0  0  0  0  0  0  0
    6.6200  -10.5281   36.0701 C   0  0  0  0  0  0  0  0  0  0  0  0
    5.8634   -9.8260   35.0954 C   0  0  0  0  0  0  0  0  0  0  0  0
    6.3765   -9.7105   33.7992 C   0  0  0  0  0  0  0  0  0  0  0  0
    5.9364  -10.8976   40.2867 C   0  0  0  0  0  0  0  0  0  0  0  0
    8.5120  -11.8575   36.5222 O   0  0  0  0  0  0  0  0  0  0  0  0
    1.2610   -8.7744   34.7513 O   0  0  0  0  0  0  0  0  0  0  0  0
    2.0579   -9.8739   32.6147 O   0  0  0  0  0  0  0  0  0  0  0  0
    2.4655  -10.9645   34.8724 O   0  0  0  0  0  0  0  0  0  0  0  0
    3.7677   -9.0026   34.1976 O   0  0  0  0  0  0  0  0  0  0  0  0
    5.7093  -11.7440   37.9645 N   0  0  0  0  0  0  0  0  0  0  0  0
    2.2960   -9.6657   34.0948 P   0  0  2  0  0  0  0  0  0  0  0  0
    9.7156  -11.4085   34.0529 C   0  0  0  0  0  0  0  0  0  0  0  0
    6.0978  -10.6316   37.4628 C   0  0  0  0  0  0  0  0  0  0  0  0
    4.5071   -9.2542   35.3974 C   0  0  0  0  0  0  0  0  0  0  0  0
    7.5685  -10.2397   33.5233 N   0  0  0  0  0  0  0  0  0  0  0  0
    5.5654  -12.0776   39.3802 C   0  0  1  0  0  0  0  0  0  0  0  0
    6.3190  -13.3780   39.7648 C   0  0  0  0  0  0  0  0  0  0  0  0
    6.1251  -13.8779   40.9033 O   0  0  0  0  0  0  0  0  0  0  0  0
    4.6581  -10.3326   40.8755 C   0  0  0  0  0  0  0  0  0  0  0  0
    4.4949   -8.8646   40.6004 C   0  0  0  0  0  0  0  0  0  0  0  0
    3.2825   -8.6731   39.8346 N   0  0  0  0  0  0  0  0  0  0  0  0
    2.1196   -8.3452   40.3852 C   0  0  0  0  0  0  0  0  0  0  0  0
    1.0606   -8.1798   39.6267 N   0  0  0  0  0  0  0  0  0  0  0  0
    2.0157   -8.2423   41.6949 N   0  0  0  0  0  0  0  0  0  0  0  0
    7.0828  -13.8721   38.8833 O   0  0  0  0  0  0  0  0  0  0  0  0
    5.8038   -9.1898   33.0176 H   0  0  0  0  0  0  0  0  0  0  0  0
    6.5981  -11.2425   41.0950 H   0  0  0  0  0  0  0  0  0  0  0  0
    6.4626  -10.1243   39.7078 H   0  0  0  0  0  0  0  0  0  0  0  0
    8.1715  -12.0209   37.4373 H   0  0  0  0  0  0  0  0  0  0  0  0
   10.3018  -11.6210   34.9590 H   0  0  0  0  0  0  0  0  0  0  0  0
    9.6156  -12.3276   33.4568 H   0  0  0  0  0  0  0  0  0  0  0  0
   10.2278  -10.6389   33.4568 H   0  0  0  0  0  0  0  0  0  0  0  0
    6.0445   -9.7225   38.0797 H   0  0  0  0  0  0  0  0  0  0  0  0
    3.9479   -9.9686   36.0194 H   0  0  0  0  0  0  0  0  0  0  0  0
    4.6438   -8.2996   35.9266 H   0  0  0  0  0  0  0  0  0  0  0  0
    4.4979  -12.2837   39.5478 H   0  0  0  0  0  0  0  0  0  0  0  0
    3.8024  -10.8698   40.4406 H   0  0  0  0  0  0  0  0  0  0  0  0
    4.7075  -10.4636   41.9665 H   0  0  0  0  0  0  0  0  0  0  0  0
    4.4244   -8.3146   41.5505 H   0  0  0  0  0  0  0  0  0  0  0  0
    5.3607   -8.4883   40.0358 H   0  0  0  0  0  0  0  0  0  0  0  0
    3.3234   -8.7972   38.8129 H   0  0  0  0  0  0  0  0  0  0  0  0
    0.1575   -7.9254   40.0516 H   0  0  0  0  0  0  0  0  0  0  0  0
    1.1330   -8.3044   38.6069 H   0  0  0  0  0  0  0  0  0  0  0  0
    1.1134   -7.9879   42.1215 H   0  0  0  0  0  0  0  0  0  0  0  0
    2.8368   -8.4163   42.2919 H   0  0  0  0  0  0  0  0  0  0  0  0
  1  2  2  0
  1 14  1  0
  1 17  1  0
  2  3  1  0
  2  7  1  0
  3  4  2  0
  3 15  1  0
  4  5  1  0
  4 16  1  0
  5 17  2  0
 18  6  1  0
  6 21  1  0
 13  8  1  1
  9 13  1  0
 10 13  2  0
 11 13  1  0
 11 16  1  0
 12 15  2  3
 12 18  1  0
 18 19  1  0
 19 20  1  0
 19 27  2  0
 21 22  1  0
 22 23  1  0
 23 24  1  0
 24 25  1  0
 24 26  2  0
  5 28  1  0
  6 29  1  0
  6 30  1  0
  7 31  1  0
 14 32  1  0
 14 33  1  0
 14 34  1  0
 15 35  1  0
 16 36  1  0
 16 37  1  0
 18 38  1  6
 21 39  1  0
 21 40  1  0
 22 41  1  0
 22 42  1  0
 23 43  1  0
 25 44  1  0
 25 45  1  0
 26 46  1  0
 26 47  1  0
M  CHG  4   8  -1   9  -1  20  -1  26   1
M  END
>  <filename_input>  (11) 
8D5D_5DK_docked.sdf

>  <pdb_id>  (11) 
8D5D_5DK

>  <pose_rank>  (11) 
10

>  <num_atoms_heavy>  (11) 
27

>  <num_torsions>  (11) 
10

>  <pose>  (11) 
[8.35188741489425, -10.914175888960306, 34.443285377221635, -2.050202905347001, 1.030919296898059, -1.9160121392290481, -1.0926289865406604, -0.7446565215521067, -3.60465088498862, -0.9236111402204632, 0.8669822333687008, -0.869205888859755, -1.3545754203849996, -3.8650820981662166, -0.793760629137589, 2.643739557210186]

>  <energy>  (11) 
-572.1137311969419

>  <inter_energy>  (11) 
-569.8314600020427

>  <intra_energy>  (11) 
5.425962010958626

>  <rmsd>  (11) 
6.88034

>  <sdf_rank>  (11) 
0

$$$$

     RDKit          3D

 47 47  0  0  0  0  0  0  0  0999 V2000
    5.8665  -11.9966   40.6226 C   0  0  0  0  0  0  0  0  0  0  0  0
    6.2495  -11.6125   39.3464 C   0  0  0  0  0  0  0  0  0  0  0  0
    5.9036  -10.3186   38.8969 C   0  0  0  0  0  0  0  0  0  0  0  0
    5.2815   -9.3983   39.7809 C   0  0  0  0  0  0  0  0  0  0  0  0
    4.9894   -9.8098   41.0856 C   0  0  0  0  0  0  0  0  0  0  0  0
    6.7488   -9.1444   34.7030 C   0  0  0  0  0  0  0  0  0  0  0  0
    6.9058  -12.4343   38.6312 O   0  0  0  0  0  0  0  0  0  0  0  0
    1.7068   -7.5797   41.2438 O   0  0  0  0  0  0  0  0  0  0  0  0
    2.2206   -6.1150   39.2439 O   0  0  0  0  0  0  0  0  0  0  0  0
    2.4125   -8.6434   39.0915 O   0  0  0  0  0  0  0  0  0  0  0  0
    4.0981   -7.3501   40.3106 O   0  0  0  0  0  0  0  0  0  0  0  0
    5.6972  -10.5148   36.4854 N   0  0  0  0  0  0  0  0  0  0  0  0
    2.5170   -7.4069   39.9748 P   0  0  2  0  0  0  0  0  0  0  0  0
    6.0847  -13.4010   41.1089 C   0  0  0  0  0  0  0  0  0  0  0  0
    6.1921   -9.9015   37.4949 C   0  0  0  0  0  0  0  0  0  0  0  0
    4.9799   -7.9828   39.3770 C   0  0  0  0  0  0  0  0  0  0  0  0
    5.2799  -11.0578   41.4530 N   0  0  0  0  0  0  0  0  0  0  0  0
    5.5531  -10.0086   35.1218 C   0  0  1  0  0  0  0  0  0  0  0  0
    4.1967   -9.2910   34.8937 C   0  0  0  0  0  0  0  0  0  0  0  0
    4.0186   -8.1536   35.4020 O   0  0  0  0  0  0  0  0  0  0  0  0
    7.9230  -10.0632   34.4257 C   0  0  0  0  0  0  0  0  0  0  0  0
    8.2724  -10.1298   32.9660 C   0  0  0  0  0  0  0  0  0  0  0  0
    9.5898   -9.5608   32.7829 N   0  0  0  0  0  0  0  0  0  0  0  0
   10.4149   -9.9362   31.8126 C   0  0  0  0  0  0  0  0  0  0  0  0
   11.5944   -9.3700   31.7018 N   0  0  0  0  0  0  0  0  0  0  0  0
   10.0735  -10.9145   30.9984 N   0  0  0  0  0  0  0  0  0  0  0  0
    3.3455   -9.9012   34.1812 O   0  0  0  0  0  0  0  0  0  0  0  0
    4.5261   -9.1125   41.7991 H   0  0  0  0  0  0  0  0  0  0  0  0
    6.4979   -8.5763   33.7951 H   0  0  0  0  0  0  0  0  0  0  0  0
    7.0030   -8.4337   35.5032 H   0  0  0  0  0  0  0  0  0  0  0  0
    7.1886  -12.1794   37.7174 H   0  0  0  0  0  0  0  0  0  0  0  0
    6.0864  -13.4120   42.2089 H   0  0  0  0  0  0  0  0  0  0  0  0
    5.2763  -14.0476   40.7371 H   0  0  0  0  0  0  0  0  0  0  0  0
    7.0512  -13.7718   40.7371 H   0  0  0  0  0  0  0  0  0  0  0  0
    6.8519   -9.0385   37.3218 H   0  0  0  0  0  0  0  0  0  0  0  0
    5.9210   -7.4151   39.3322 H   0  0  0  0  0  0  0  0  0  0  0  0
    4.4878   -8.0008   38.3933 H   0  0  0  0  0  0  0  0  0  0  0  0
    5.5480  -10.8867   34.4593 H   0  0  0  0  0  0  0  0  0  0  0  0
    8.7980   -9.6942   34.9809 H   0  0  0  0  0  0  0  0  0  0  0  0
    7.6367  -11.0758   34.7463 H   0  0  0  0  0  0  0  0  0  0  0  0
    8.2711  -11.1778   32.6315 H   0  0  0  0  0  0  0  0  0  0  0  0
    7.5337   -9.5678   32.3756 H   0  0  0  0  0  0  0  0  0  0  0  0
    9.9029   -8.8291   33.4368 H   0  0  0  0  0  0  0  0  0  0  0  0
   12.2361   -9.6596   30.9499 H   0  0  0  0  0  0  0  0  0  0  0  0
   11.8780   -8.6363   32.3667 H   0  0  0  0  0  0  0  0  0  0  0  0
   10.7139  -11.2054   30.2459 H   0  0  0  0  0  0  0  0  0  0  0  0
    9.1664  -11.3884   31.1145 H   0  0  0  0  0  0  0  0  0  0  0  0
  1  2  2  0
  1 14  1  0
  1 17  1  0
  2  3  1  0
  2  7  1  0
  3  4  2  0
  3 15  1  0
  4  5  1  0
  4 16  1  0
  5 17  2  0
 18  6  1  0
  6 21  1  0
 13  8  1  1
  9 13  1  0
 10 13  2  0
 11 13  1  0
 11 16  1  0
 12 15  2  3
 12 18  1  0
 18 19  1  0
 19 20  1  0
 19 27  2  0
 21 22  1  0
 22 23  1  0
 23 24  1  0
 24 25  1  0
 24 26  2  0
  5 28  1  0
  6 29  1  0
  6 30  1  0
  7 31  1  0
 14 32  1  0
 14 33  1  0
 14 34  1  0
 15 35  1  0
 16 36  1  0
 16 37  1  0
 18 38  1  6
 21 39  1  0
 21 40  1  0
 22 41  1  0
 22 42  1  0
 23 43  1  0
 25 44  1  0
 25 45  1  0
 26 46  1  0
 26 47  1  0
M  CHG  4   8  -1   9  -1  20  -1  26   1
M  END
>  <filename_input>  (12) 
8D5D_5DK_docked.sdf

>  <pdb_id>  (12) 
8D5D_5DK

>  <pose_rank>  (12) 
11

>  <num_atoms_heavy>  (12) 
27

>  <num_torsions>  (12) 
10

>  <pose>  (12) 
[5.8664998905310455, -11.996600754427915, 40.62258185168955, 1.1642482967159977, 0.7035380971597346, -0.6489333825757511, -5.14526467648093, -6.375389150332247, 0.64169538050037, -14.052880025406091, -13.88699890283482, -7.2297164671242085, 5.881125532458397, -4.430779639715291, 1.6546700447850466, 3.645724077772094]

>  <energy>  (12) 
-623.6965941810136

>  <inter_energy>  (12) 
-639.9395981786478

>  <intra_energy>  (12) 
20.968619018938377

>  <rmsd>  (12) 
4.92835

>  <sdf_rank>  (12) 
0

$$$$

     RDKit          3D

 47 47  0  0  0  0  0  0  0  0999 V2000
    6.3424  -13.3909   40.0156 C   0  0  0  0  0  0  0  0  0  0  0  0
    6.2579  -12.2919   39.1741 C   0  0  0  0  0  0  0  0  0  0  0  0
    6.7062  -12.4245   37.8410 C   0  0  0  0  0  0  0  0  0  0  0  0
    7.1223  -13.6899   37.3502 C   0  0  0  0  0  0  0  0  0  0  0  0
    7.1116  -14.7861   38.2191 C   0  0  0  0  0  0  0  0  0  0  0  0
    4.1797   -9.4072   34.9583 C   0  0  0  0  0  0  0  0  0  0  0  0
    5.7714  -11.2086   39.6297 O   0  0  0  0  0  0  0  0  0  0  0  0
   11.1268  -14.2152   35.1173 O   0  0  0  0  0  0  0  0  0  0  0  0
    9.5489  -15.5049   33.6154 O   0  0  0  0  0  0  0  0  0  0  0  0
    9.1746  -13.0371   34.0866 O   0  0  0  0  0  0  0  0  0  0  0  0
    8.6945  -14.7085   35.8117 O   0  0  0  0  0  0  0  0  0  0  0  0
    5.6963  -10.8116   36.3325 N   0  0  0  0  0  0  0  0  0  0  0  0
    9.7104  -14.3671   34.6004 P   0  0  2  0  0  0  0  0  0  0  0  0
    6.0093  -13.2780   41.4759 C   0  0  0  0  0  0  0  0  0  0  0  0
    6.7422  -11.2425   36.9330 C   0  0  0  0  0  0  0  0  0  0  0  0
    7.5183  -13.8989   35.9159 C   0  0  0  0  0  0  0  0  0  0  0  0
    6.7360  -14.6071   39.4855 N   0  0  0  0  0  0  0  0  0  0  0  0
    5.4841   -9.4831   35.7613 C   0  0  1  0  0  0  0  0  0  0  0  0
    6.7076   -8.9819   34.9498 C   0  0  0  0  0  0  0  0  0  0  0  0
    7.2177   -9.7439   34.0878 O   0  0  0  0  0  0  0  0  0  0  0  0
    3.0854   -8.9033   35.8794 C   0  0  0  0  0  0  0  0  0  0  0  0
    3.6189   -8.0629   37.0048 C   0  0  0  0  0  0  0  0  0  0  0  0
    2.5291   -7.7570   37.9058 N   0  0  0  0  0  0  0  0  0  0  0  0
    2.5997   -7.9383   39.2192 C   0  0  0  0  0  0  0  0  0  0  0  0
    1.5730   -7.6310   39.9779 N   0  0  0  0  0  0  0  0  0  0  0  0
    3.6763   -8.4790   39.7534 N   0  0  0  0  0  0  0  0  0  0  0  0
    7.1112   -7.8076   35.2001 O   0  0  0  0  0  0  0  0  0  0  0  0
    7.4093  -15.7830   37.8619 H   0  0  0  0  0  0  0  0  0  0  0  0
    4.3028   -8.7147   34.1125 H   0  0  0  0  0  0  0  0  0  0  0  0
    3.9176  -10.4002   34.5643 H   0  0  0  0  0  0  0  0  0  0  0  0
    5.7024  -10.4126   39.0452 H   0  0  0  0  0  0  0  0  0  0  0  0
    6.8829  -13.5741   42.0752 H   0  0  0  0  0  0  0  0  0  0  0  0
    5.7388  -12.2380   41.7110 H   0  0  0  0  0  0  0  0  0  0  0  0
    5.1622  -13.9392   41.7110 H   0  0  0  0  0  0  0  0  0  0  0  0
    7.6988  -10.7233   36.7735 H   0  0  0  0  0  0  0  0  0  0  0  0
    6.6931  -14.3965   35.3856 H   0  0  0  0  0  0  0  0  0  0  0  0
    7.7332  -12.9168   35.4694 H   0  0  0  0  0  0  0  0  0  0  0  0
    5.3764   -8.7900   36.6087 H   0  0  0  0  0  0  0  0  0  0  0  0
    2.3806   -8.2976   35.2908 H   0  0  0  0  0  0  0  0  0  0  0  0
    2.5932   -9.7811   36.3235 H   0  0  0  0  0  0  0  0  0  0  0  0
    4.4012   -8.6175   37.5435 H   0  0  0  0  0  0  0  0  0  0  0  0
    4.0522   -7.1329   36.6080 H   0  0  0  0  0  0  0  0  0  0  0  0
    1.6562   -7.3804   37.5092 H   0  0  0  0  0  0  0  0  0  0  0  0
    1.6256   -7.7708   40.9970 H   0  0  0  0  0  0  0  0  0  0  0  0
    0.7151   -7.2501   39.5539 H   0  0  0  0  0  0  0  0  0  0  0  0
    3.7307   -8.6194   40.7723 H   0  0  0  0  0  0  0  0  0  0  0  0
    4.4635   -8.7611   39.1519 H   0  0  0  0  0  0  0  0  0  0  0  0
  1  2  2  0
  1 14  1  0
  1 17  1  0
  2  3  1  0
  2  7  1  0
  3  4  2  0
  3 15  1  0
  4  5  1  0
  4 16  1  0
  5 17  2  0
 18  6  1  0
  6 21  1  0
 13  8  1  1
  9 13  1  0
 10 13  2  0
 11 13  1  0
 11 16  1  0
 12 15  2  3
 12 18  1  0
 18 19  1  0
 19 20  1  0
 19 27  2  0
 21 22  1  0
 22 23  1  0
 23 24  1  0
 24 25  1  0
 24 26  2  0
  5 28  1  0
  6 29  1  0
  6 30  1  0
  7 31  1  0
 14 32  1  0
 14 33  1  0
 14 34  1  0
 15 35  1  0
 16 36  1  0
 16 37  1  0
 18 38  1  1
 21 39  1  0
 21 40  1  0
 22 41  1  0
 22 42  1  0
 23 43  1  0
 25 44  1  0
 25 45  1  0
 26 46  1  0
 26 47  1  0
M  CHG  4   8  -1   9  -1  20  -1  26   1
M  END
>  <filename_input>  (13) 
8D5D_5DK_docked.sdf

>  <pdb_id>  (13) 
8D5D_5DK

>  <pose_rank>  (13) 
12

>  <num_atoms_heavy>  (13) 
27

>  <num_torsions>  (13) 
10

>  <pose>  (13) 
[6.3423663318854455, -13.390881756149941, 40.015563913580024, 0.6618608029922058, -0.07613589763120215, -4.170838803444141, -1.3176432283646236, 2.2541758440352586, 0.2275750133142854, -1.1599756103185503, -2.7844276187524915, 0.30108964944415534, -0.7669241306182348, 1.3269959130208036, 0.7478622483443773, 3.4060950394737444]

>  <energy>  (13) 
-605.17642914098

>  <inter_energy>  (13) 
-608.8275302464679

>  <intra_energy>  (13) 
6.036454600479141

>  <rmsd>  (13) 
7.55127

>  <sdf_rank>  (13) 
0

$$$$

     RDKit          3D

 47 47  0  0  0  0  0  0  0  0999 V2000
    2.5261   -7.9091   38.8420 C   0  0  0  0  0  0  0  0  0  0  0  0
    3.5236   -8.5619   38.1337 C   0  0  0  0  0  0  0  0  0  0  0  0
    3.3848   -8.6921   36.7338 C   0  0  0  0  0  0  0  0  0  0  0  0
    2.3039   -8.0632   36.0620 C   0  0  0  0  0  0  0  0  0  0  0  0
    1.3677   -7.3469   36.8152 C   0  0  0  0  0  0  0  0  0  0  0  0
    7.3627  -10.4721   36.4221 C   0  0  0  0  0  0  0  0  0  0  0  0
    4.5308   -9.0105   38.7678 O   0  0  0  0  0  0  0  0  0  0  0  0
    0.9351  -10.1428   31.7646 O   0  0  0  0  0  0  0  0  0  0  0  0
    3.1137   -8.9364   32.2198 O   0  0  0  0  0  0  0  0  0  0  0  0
    2.6894  -11.2591   33.1567 O   0  0  0  0  0  0  0  0  0  0  0  0
    1.5580   -9.3137   34.1239 O   0  0  0  0  0  0  0  0  0  0  0  0
    5.5192   -9.0155   35.6217 N   0  0  0  0  0  0  0  0  0  0  0  0
    2.0878   -9.9281   32.7247 P   0  0  2  0  0  0  0  0  0  0  0  0
    2.5477   -7.8556   40.3431 C   0  0  0  0  0  0  0  0  0  0  0  0
    4.3719   -9.4838   35.9453 C   0  0  0  0  0  0  0  0  0  0  0  0
    2.1665   -8.0956   34.5661 C   0  0  0  0  0  0  0  0  0  0  0  0
    1.5028   -7.2961   38.1404 N   0  0  0  0  0  0  0  0  0  0  0  0
    6.7071   -9.7699   35.2266 C   0  0  1  0  0  0  0  0  0  0  0  0
    7.7161   -8.9113   34.4195 C   0  0  0  0  0  0  0  0  0  0  0  0
    7.9458   -7.7320   34.7943 O   0  0  0  0  0  0  0  0  0  0  0  0
    8.5565  -11.2570   35.9136 C   0  0  0  0  0  0  0  0  0  0  0  0
    8.1611  -12.3852   35.0036 C   0  0  0  0  0  0  0  0  0  0  0  0
    9.2452  -13.3422   34.9611 N   0  0  0  0  0  0  0  0  0  0  0  0
   10.2579  -13.2552   34.1068 C   0  0  0  0  0  0  0  0  0  0  0  0
   11.2124  -14.1567   34.1303 N   0  0  0  0  0  0  0  0  0  0  0  0
   10.2754  -12.2993   33.1998 N   0  0  0  0  0  0  0  0  0  0  0  0
    8.2679   -9.4700   33.4256 O   0  0  0  0  0  0  0  0  0  0  0  0
    0.5309   -6.8323   36.3204 H   0  0  0  0  0  0  0  0  0  0  0  0
    7.6945   -9.7241   37.1572 H   0  0  0  0  0  0  0  0  0  0  0  0
    6.6429  -11.1472   36.9080 H   0  0  0  0  0  0  0  0  0  0  0  0
    5.2538   -9.4795   38.2806 H   0  0  0  0  0  0  0  0  0  0  0  0
    2.1646   -8.8034   40.7493 H   0  0  0  0  0  0  0  0  0  0  0  0
    3.5798   -7.6988   40.6895 H   0  0  0  0  0  0  0  0  0  0  0  0
    1.9145   -7.0256   40.6895 H   0  0  0  0  0  0  0  0  0  0  0  0
    4.1060  -10.5038   35.6310 H   0  0  0  0  0  0  0  0  0  0  0  0
    1.5438   -7.2474   34.2454 H   0  0  0  0  0  0  0  0  0  0  0  0
    3.1718   -8.0305   34.1245 H   0  0  0  0  0  0  0  0  0  0  0  0
    6.3645  -10.5602   34.5425 H   0  0  0  0  0  0  0  0  0  0  0  0
    9.2179  -10.5737   35.3608 H   0  0  0  0  0  0  0  0  0  0  0  0
    9.0635  -11.6949   36.7861 H   0  0  0  0  0  0  0  0  0  0  0  0
    7.2522  -12.8710   35.3881 H   0  0  0  0  0  0  0  0  0  0  0  0
    7.9578  -12.0008   33.9931 H   0  0  0  0  0  0  0  0  0  0  0  0
    9.2307  -14.1290   35.6256 H   0  0  0  0  0  0  0  0  0  0  0  0
   11.9990  -14.0912   33.4685 H   0  0  0  0  0  0  0  0  0  0  0  0
   11.1746  -14.9292   34.8104 H   0  0  0  0  0  0  0  0  0  0  0  0
   11.0613  -12.2323   32.5373 H   0  0  0  0  0  0  0  0  0  0  0  0
    9.5033  -11.6192   33.1534 H   0  0  0  0  0  0  0  0  0  0  0  0
  1  2  2  0
  1 14  1  0
  1 17  1  0
  2  3  1  0
  2  7  1  0
  3  4  2  0
  3 15  1  0
  4  5  1  0
  4 16  1  0
  5 17  2  0
 18  6  1  0
  6 21  1  0
 13  8  1  6
  9 13  1  0
 10 13  2  0
 11 13  1  0
 11 16  1  0
 12 15  2  3
 12 18  1  0
 18 19  1  0
 19 20  1  0
 19 27  2  0
 21 22  1  0
 22 23  1  0
 23 24  1  0
 24 25  1  0
 24 26  2  0
  5 28  1  0
  6 29  1  0
  6 30  1  0
  7 31  1  0
 14 32  1  0
 14 33  1  0
 14 34  1  0
 15 35  1  0
 16 36  1  0
 16 37  1  0
 18 38  1  6
 21 39  1  0
 21 40  1  0
 22 41  1  0
 22 42  1  0
 23 43  1  0
 25 44  1  0
 25 45  1  0
 26 46  1  0
 26 47  1  0
M  CHG  4   8  -1   9  -1  20  -1  26   1
M  END
>  <filename_input>  (14) 
8D5D_5DK_docked.sdf

>  <pdb_id>  (14) 
8D5D_5DK

>  <pose_rank>  (14) 
13

>  <num_atoms_heavy>  (14) 
27

>  <num_torsions>  (14) 
10

>  <pose>  (14) 
[2.526084037054804, -7.909100180704196, 38.84202944201345, -0.45873802184860085, -1.52119166328503, 5.766758444049852, -1.2854899856749844, -2.0357637734097476, 0.09925285295254709, 0.3230548239617639, -4.389137993533549, 0.5478334488207084, 1.7197499378999466, -5.90354251718361, 0.7721705334128222, -1.0315576650533207]

>  <energy>  (14) 
-781.0993700753365

>  <inter_energy>  (14) 
-796.2316970131399

>  <intra_energy>  (14) 
18.79518384344491

>  <rmsd>  (14) 
2.33976

>  <sdf_rank>  (14) 
0

$$$$

     RDKit          3D

 47 47  0  0  0  0  0  0  0  0999 V2000
    7.8844  -14.7283   35.7119 C   0  0  0  0  0  0  0  0  0  0  0  0
    7.1614  -13.6567   36.2138 C   0  0  0  0  0  0  0  0  0  0  0  0
    7.5600  -12.3477   35.8624 C   0  0  0  0  0  0  0  0  0  0  0  0
    8.6050  -12.1477   34.9226 C   0  0  0  0  0  0  0  0  0  0  0  0
    9.2492  -13.2661   34.3833 C   0  0  0  0  0  0  0  0  0  0  0  0
    4.3148   -8.7449   36.0450 C   0  0  0  0  0  0  0  0  0  0  0  0
    6.1609  -13.8911   36.9633 O   0  0  0  0  0  0  0  0  0  0  0  0
    9.7736   -8.5211   32.7081 O   0  0  0  0  0  0  0  0  0  0  0  0
   11.9495   -9.7459   32.2907 O   0  0  0  0  0  0  0  0  0  0  0  0
    9.7481  -10.6652   31.4183 O   0  0  0  0  0  0  0  0  0  0  0  0
   10.2798  -10.7972   33.8057 O   0  0  0  0  0  0  0  0  0  0  0  0
    5.7093  -10.7969   36.1204 N   0  0  0  0  0  0  0  0  0  0  0  0
   10.4547   -9.8588   32.5001 P   0  0  2  0  0  0  0  0  0  0  0  0
    7.5959  -16.1346   36.1540 C   0  0  0  0  0  0  0  0  0  0  0  0
    6.8866  -11.1629   36.4671 C   0  0  0  0  0  0  0  0  0  0  0  0
    9.0007  -10.7779   34.4484 C   0  0  0  0  0  0  0  0  0  0  0  0
    8.8816  -14.4831   34.7843 N   0  0  0  0  0  0  0  0  0  0  0  0
    4.7860   -9.9481   36.8711 C   0  0  1  0  0  0  0  0  0  0  0  0
    5.3523   -9.5302   38.2537 C   0  0  0  0  0  0  0  0  0  0  0  0
    5.3330  -10.3653   39.1950 O   0  0  0  0  0  0  0  0  0  0  0  0
    2.8012   -8.6840   36.1183 C   0  0  0  0  0  0  0  0  0  0  0  0
    2.3006   -7.3667   36.6392 C   0  0  0  0  0  0  0  0  0  0  0  0
    1.4359   -7.6194   37.7712 N   0  0  0  0  0  0  0  0  0  0  0  0
    1.8206   -7.4517   39.0309 C   0  0  0  0  0  0  0  0  0  0  0  0
    0.9788   -7.6932   40.0093 N   0  0  0  0  0  0  0  0  0  0  0  0
    3.0614   -7.0990   39.3001 N   0  0  0  0  0  0  0  0  0  0  0  0
    5.8231   -8.3577   38.3424 O   0  0  0  0  0  0  0  0  0  0  0  0
   10.0487  -13.1430   33.6379 H   0  0  0  0  0  0  0  0  0  0  0  0
    4.7451   -7.8196   36.4557 H   0  0  0  0  0  0  0  0  0  0  0  0
    4.6408   -8.8503   34.9997 H   0  0  0  0  0  0  0  0  0  0  0  0
    5.6317  -13.1400   37.3318 H   0  0  0  0  0  0  0  0  0  0  0  0
    7.5869  -16.1789   37.2531 H   0  0  0  0  0  0  0  0  0  0  0  0
    6.6151  -16.4470   35.7663 H   0  0  0  0  0  0  0  0  0  0  0  0
    8.3747  -16.8078   35.7663 H   0  0  0  0  0  0  0  0  0  0  0  0
    7.4185  -10.5840   37.2365 H   0  0  0  0  0  0  0  0  0  0  0  0
    8.2468  -10.4147   33.7344 H   0  0  0  0  0  0  0  0  0  0  0  0
    9.0624  -10.1132   35.3226 H   0  0  0  0  0  0  0  0  0  0  0  0
    3.8954  -10.5592   37.0790 H   0  0  0  0  0  0  0  0  0  0  0  0
    2.3930   -8.8418   35.1091 H   0  0  0  0  0  0  0  0  0  0  0  0
    2.4697   -9.4662   36.8169 H   0  0  0  0  0  0  0  0  0  0  0  0
    3.1515   -6.7445   36.9538 H   0  0  0  0  0  0  0  0  0  0  0  0
    1.7452   -6.8364   35.8516 H   0  0  0  0  0  0  0  0  0  0  0  0
    0.4755   -7.9453   37.5912 H   0  0  0  0  0  0  0  0  0  0  0  0
    1.2750   -7.5638   40.9872 H   0  0  0  0  0  0  0  0  0  0  0  0
    0.0223   -8.0121   39.7988 H   0  0  0  0  0  0  0  0  0  0  0  0
    3.3594   -6.9690   40.2775 H   0  0  0  0  0  0  0  0  0  0  0  0
    3.7334   -6.9534   38.5332 H   0  0  0  0  0  0  0  0  0  0  0  0
  1  2  2  0
  1 14  1  0
  1 17  1  0
  2  3  1  0
  2  7  1  0
  3  4  2  0
  3 15  1  0
  4  5  1  0
  4 16  1  0
  5 17  2  0
 18  6  1  0
  6 21  1  0
 13  8  1  1
  9 13  1  0
 10 13  2  0
 11 13  1  0
 11 16  1  0
 12 15  2  3
 12 18  1  0
 18 19  1  0
 19 20  1  0
 19 27  2  0
 21 22  1  0
 22 23  1  0
 23 24  1  0
 24 25  1  0
 24 26  2  0
  5 28  1  0
  6 29  1  0
  6 30  1  0
  7 31  1  0
 14 32  1  0
 14 33  1  0
 14 34  1  0
 15 35  1  0
 16 36  1  0
 16 37  1  0
 18 38  1  1
 21 39  1  0
 21 40  1  0
 22 41  1  0
 22 42  1  0
 23 43  1  0
 25 44  1  0
 25 45  1  0
 26 46  1  0
 26 47  1  0
M  CHG  4   8  -1   9  -1  20  -1  26   1
M  END
>  <filename_input>  (15) 
8D5D_5DK_docked.sdf

>  <pdb_id>  (15) 
8D5D_5DK

>  <pose_rank>  (15) 
14

>  <num_atoms_heavy>  (15) 
27

>  <num_torsions>  (15) 
10

>  <pose>  (15) 
[7.88437472533405, -14.72828566851623, 35.711890770467775, -0.14963100024024953, 2.1404825265044893, -2.9836950422783013, -1.206620836058612, 1.435614519967583, -1.9853563851237526, -0.5286078581966248, -1.0878387005482597, 1.1460647220059472, -1.2490797693124527, -4.479374612695416, -6.810818539777901, 1.860311613805238]

>  <energy>  (15) 
-629.8511931389634

>  <inter_energy>  (15) 
-643.8410272135793

>  <intra_energy>  (15) 
10.846935560870765

>  <rmsd>  (15) 
8.07397

>  <sdf_rank>  (15) 
0

$$$$

     RDKit          3D

 47 47  0  0  0  0  0  0  0  0999 V2000
   10.3395  -10.5207   33.0911 C   0  0  0  0  0  0  0  0  0  0  0  0
    9.3600  -10.8084   34.0296 C   0  0  0  0  0  0  0  0  0  0  0  0
    9.2104  -12.1445   34.4635 C   0  0  0  0  0  0  0  0  0  0  0  0
   10.1234  -13.1420   34.0312 C   0  0  0  0  0  0  0  0  0  0  0  0
   11.1449  -12.7821   33.1459 C   0  0  0  0  0  0  0  0  0  0  0  0
    5.1603  -11.4164   35.9364 C   0  0  0  0  0  0  0  0  0  0  0  0
    8.6394   -9.8586   34.4726 O   0  0  0  0  0  0  0  0  0  0  0  0
    8.2711  -17.5542   32.9487 O   0  0  0  0  0  0  0  0  0  0  0  0
   10.5043  -17.7245   34.1290 O   0  0  0  0  0  0  0  0  0  0  0  0
    8.4987  -16.6724   35.2794 O   0  0  0  0  0  0  0  0  0  0  0  0
    9.6745  -15.4647   33.5021 O   0  0  0  0  0  0  0  0  0  0  0  0
    7.6082  -11.7001   36.2333 N   0  0  0  0  0  0  0  0  0  0  0  0
    9.2170  -16.9455   33.9643 P   0  0  2  0  0  0  0  0  0  0  0  0
   10.4603   -9.1491   32.4906 C   0  0  0  0  0  0  0  0  0  0  0  0
    8.0992  -12.5223   35.3830 C   0  0  0  0  0  0  0  0  0  0  0  0
   10.0606  -14.5551   34.5381 C   0  0  0  0  0  0  0  0  0  0  0  0
   11.2170  -11.5226   32.7153 N   0  0  0  0  0  0  0  0  0  0  0  0
    6.3053  -11.7755   36.8914 C   0  0  1  0  0  0  0  0  0  0  0  0
    6.2554  -10.9565   38.2081 C   0  0  0  0  0  0  0  0  0  0  0  0
    6.2701   -9.6999   38.1422 O   0  0  0  0  0  0  0  0  0  0  0  0
    5.2604   -9.9384   35.6118 C   0  0  0  0  0  0  0  0  0  0  0  0
    3.9445   -9.3493   35.1890 C   0  0  0  0  0  0  0  0  0  0  0  0
    3.5561   -9.9491   33.9311 N   0  0  0  0  0  0  0  0  0  0  0  0
    2.3935   -9.7048   33.3380 C   0  0  0  0  0  0  0  0  0  0  0  0
    2.1107  -10.2793   32.1917 N   0  0  0  0  0  0  0  0  0  0  0  0
    1.5023   -8.9327   33.9266 N   0  0  0  0  0  0  0  0  0  0  0  0
    6.1839  -11.6192   39.2852 O   0  0  0  0  0  0  0  0  0  0  0  0
   11.8792  -13.5288   32.8094 H   0  0  0  0  0  0  0  0  0  0  0  0
    5.2467  -12.0073   35.0126 H   0  0  0  0  0  0  0  0  0  0  0  0
    4.1904  -11.6377   36.4056 H   0  0  0  0  0  0  0  0  0  0  0  0
    7.9347  -10.0431   35.1431 H   0  0  0  0  0  0  0  0  0  0  0  0
   10.5262   -8.4014   33.2946 H   0  0  0  0  0  0  0  0  0  0  0  0
   11.3663   -9.0997   31.8687 H   0  0  0  0  0  0  0  0  0  0  0  0
    9.5770   -8.9420   31.8687 H   0  0  0  0  0  0  0  0  0  0  0  0
    7.6875  -13.5410   35.3293 H   0  0  0  0  0  0  0  0  0  0  0  0
   11.0521  -14.8439   34.9168 H   0  0  0  0  0  0  0  0  0  0  0  0
    9.3080  -14.6027   35.3389 H   0  0  0  0  0  0  0  0  0  0  0  0
    6.1597  -12.8266   37.1811 H   0  0  0  0  0  0  0  0  0  0  0  0
    5.6143   -9.4045   36.5061 H   0  0  0  0  0  0  0  0  0  0  0  0
    5.9602   -9.8287   34.7703 H   0  0  0  0  0  0  0  0  0  0  0  0
    3.1810   -9.5606   35.9522 H   0  0  0  0  0  0  0  0  0  0  0  0
    4.0391   -8.2595   35.0737 H   0  0  0  0  0  0  0  0  0  0  0  0
    4.2131  -10.5970   33.4734 H   0  0  0  0  0  0  0  0  0  0  0  0
    1.2095  -10.0912   31.7298 H   0  0  0  0  0  0  0  0  0  0  0  0
    2.7901  -10.9180   31.7543 H   0  0  0  0  0  0  0  0  0  0  0  0
    0.6006   -8.7434   33.4662 H   0  0  0  0  0  0  0  0  0  0  0  0
    1.7075   -8.5185   34.8471 H   0  0  0  0  0  0  0  0  0  0  0  0
  1  2  2  0
  1 14  1  0
  1 17  1  0
  2  3  1  0
  2  7  1  0
  3  4  2  0
  3 15  1  0
  4  5  1  0
  4 16  1  0
  5 17  2  0
 18  6  1  0
  6 21  1  0
 13  8  1  6
  9 13  1  0
 10 13  2  0
 11 13  1  0
 11 16  1  0
 12 15  2  3
 12 18  1  0
 18 19  1  0
 19 20  1  0
 19 27  2  0
 21 22  1  0
 22 23  1  0
 23 24  1  0
 24 25  1  0
 24 26  2  0
  5 28  1  0
  6 29  1  0
  6 30  1  0
  7 31  1  0
 14 32  1  0
 14 33  1  0
 14 34  1  0
 15 35  1  0
 16 36  1  0
 16 37  1  0
 18 38  1  1
 21 39  1  0
 21 40  1  0
 22 41  1  0
 22 42  1  0
 23 43  1  0
 25 44  1  0
 25 45  1  0
 26 46  1  0
 26 47  1  0
M  CHG  4   8  -1   9  -1  20  -1  26   1
M  END
>  <filename_input>  (16) 
8D5D_5DK_docked.sdf

>  <pdb_id>  (16) 
8D5D_5DK

>  <pose_rank>  (16) 
15

>  <num_atoms_heavy>  (16) 
27

>  <num_torsions>  (16) 
10

>  <pose>  (16) 
[10.339463511988887, -10.520713027142687, 33.09107220758723, -1.019120223619544, -2.0031925889865674, -1.3525475074771738, 5.8540209492139, -2.0421556033744066, 0.5954335190249954, 2.295347337410514, 0.31872848146892524, 2.1822853420329054, 0.02415846081813733, -17.952169789527435, -12.165085897347478, -2.446718462609465]

>  <energy>  (16) 
-531.2291840201618

>  <inter_energy>  (16) 
-567.8352755012751

>  <intra_energy>  (16) 
39.43134817559333

>  <rmsd>  (16) 
8.31477

>  <sdf_rank>  (16) 
0

$$$$

     RDKit          3D

 47 47  0  0  0  0  0  0  0  0999 V2000
    2.3278   -8.6796   34.1687 C   0  0  0  0  0  0  0  0  0  0  0  0
    3.5828   -9.2458   34.3343 C   0  0  0  0  0  0  0  0  0  0  0  0
    4.1941   -9.1758   35.6059 C   0  0  0  0  0  0  0  0  0  0  0  0
    3.4827   -8.6404   36.7116 C   0  0  0  0  0  0  0  0  0  0  0  0
    2.1864   -8.1557   36.5077 C   0  0  0  0  0  0  0  0  0  0  0  0
    8.1214  -11.5091   36.3163 C   0  0  0  0  0  0  0  0  0  0  0  0
    4.1330   -9.8155   33.3391 O   0  0  0  0  0  0  0  0  0  0  0  0
    4.2467   -6.6871   41.1632 O   0  0  0  0  0  0  0  0  0  0  0  0
    2.1121   -6.2421   39.8769 O   0  0  0  0  0  0  0  0  0  0  0  0
    2.8463   -8.6163   40.4027 O   0  0  0  0  0  0  0  0  0  0  0  0
    4.0052   -7.3209   38.6768 O   0  0  0  0  0  0  0  0  0  0  0  0
    6.0203  -10.7351   35.2451 N   0  0  0  0  0  0  0  0  0  0  0  0
    3.2736   -7.1834   40.1127 P   0  0  2  0  0  0  0  0  0  0  0  0
    1.6838   -8.6018   32.8138 C   0  0  0  0  0  0  0  0  0  0  0  0
    5.5876   -9.6674   35.8045 C   0  0  0  0  0  0  0  0  0  0  0  0
    4.0559   -8.6304   38.1005 C   0  0  0  0  0  0  0  0  0  0  0  0
    1.6670   -8.1874   35.2805 N   0  0  0  0  0  0  0  0  0  0  0  0
    7.4127  -11.1153   35.0145 C   0  0  1  0  0  0  0  0  0  0  0  0
    8.1980  -10.0421   34.2155 C   0  0  0  0  0  0  0  0  0  0  0  0
    8.8747   -9.1895   34.8471 O   0  0  0  0  0  0  0  0  0  0  0  0
    8.2344  -13.0209   36.3551 C   0  0  0  0  0  0  0  0  0  0  0  0
    8.7390  -13.5960   35.0621 C   0  0  0  0  0  0  0  0  0  0  0  0
    9.4258  -14.8367   35.3485 N   0  0  0  0  0  0  0  0  0  0  0  0
   10.5211  -15.2257   34.7067 C   0  0  0  0  0  0  0  0  0  0  0  0
   11.0967  -16.3621   35.0251 N   0  0  0  0  0  0  0  0  0  0  0  0
   10.9962  -14.5009   33.7139 N   0  0  0  0  0  0  0  0  0  0  0  0
    8.1199  -10.1059   32.9528 O   0  0  0  0  0  0  0  0  0  0  0  0
    1.6032   -7.7536   37.3493 H   0  0  0  0  0  0  0  0  0  0  0  0
    9.1250  -11.0597   36.3447 H   0  0  0  0  0  0  0  0  0  0  0  0
    7.5501  -11.1482   37.1843 H   0  0  0  0  0  0  0  0  0  0  0  0
    5.0287  -10.2259   33.4366 H   0  0  0  0  0  0  0  0  0  0  0  0
    0.5980   -8.4705   32.9309 H   0  0  0  0  0  0  0  0  0  0  0  0
    2.0988   -7.7472   32.2592 H   0  0  0  0  0  0  0  0  0  0  0  0
    1.8831   -9.5305   32.2592 H   0  0  0  0  0  0  0  0  0  0  0  0
    6.2665   -9.0941   36.4529 H   0  0  0  0  0  0  0  0  0  0  0  0
    3.4778   -9.3217   38.7313 H   0  0  0  0  0  0  0  0  0  0  0  0
    5.1090   -8.9429   38.0427 H   0  0  0  0  0  0  0  0  0  0  0  0
    7.3925  -12.0132   34.3794 H   0  0  0  0  0  0  0  0  0  0  0  0
    8.9291  -13.3017   37.1605 H   0  0  0  0  0  0  0  0  0  0  0  0
    7.2266  -13.4260   36.5291 H   0  0  0  0  0  0  0  0  0  0  0  0
    7.8928  -13.7878   34.3860 H   0  0  0  0  0  0  0  0  0  0  0  0
    9.4270  -12.8875   34.5776 H   0  0  0  0  0  0  0  0  0  0  0  0
    9.0467  -15.4478   36.0859 H   0  0  0  0  0  0  0  0  0  0  0  0
   11.9465  -16.6658   34.5286 H   0  0  0  0  0  0  0  0  0  0  0  0
   10.6985  -16.9497   35.7714 H   0  0  0  0  0  0  0  0  0  0  0  0
   11.8459  -14.8030   33.2163 H   0  0  0  0  0  0  0  0  0  0  0  0
   10.5178  -13.6322   33.4355 H   0  0  0  0  0  0  0  0  0  0  0  0
  1  2  2  0
  1 14  1  0
  1 17  1  0
  2  3  1  0
  2  7  1  0
  3  4  2  0
  3 15  1  0
  4  5  1  0
  4 16  1  0
  5 17  2  0
 18  6  1  0
  6 21  1  0
 13  8  1  1
  9 13  1  0
 10 13  2  0
 11 13  1  0
 11 16  1  0
 12 15  2  3
 12 18  1  0
 18 19  1  0
 19 20  1  0
 19 27  2  0
 21 22  1  0
 22 23  1  0
 23 24  1  0
 24 25  1  0
 24 26  2  0
  5 28  1  0
  6 29  1  0
  6 30  1  0
  7 31  1  0
 14 32  1  0
 14 33  1  0
 14 34  1  0
 15 35  1  0
 16 36  1  0
 16 37  1  0
 18 38  1  6
 21 39  1  0
 21 40  1  0
 22 41  1  0
 22 42  1  0
 23 43  1  0
 25 44  1  0
 25 45  1  0
 26 46  1  0
 26 47  1  0
M  CHG  4   8  -1   9  -1  20  -1  26   1
M  END
>  <filename_input>  (17) 
8D5D_5DK_docked.sdf

>  <pdb_id>  (17) 
8D5D_5DK

>  <pose_rank>  (17) 
16

>  <num_atoms_heavy>  (17) 
27

>  <num_torsions>  (17) 
10

>  <pose>  (17) 
[2.3277958412385273, -8.679630685703746, 34.16866647058761, 2.8015892729708254, -1.088314816433395, -0.522891911786581, -0.6080351400905427, 0.506077563130531, 1.02513266143877, -0.9798002430658176, -2.4206677377603576, -0.29705648585770444, 0.7570442451854428, -5.117158921508205, -0.7995058030694376, -3.0651862475408773]

>  <energy>  (17) 
-631.3692224629447

>  <inter_energy>  (17) 
-635.4062845181421

>  <intra_energy>  (17) 
14.5725429372524

>  <rmsd>  (17) 
5.19755

>  <sdf_rank>  (17) 
0

$$$$

     RDKit          3D

 47 47  0  0  0  0  0  0  0  0999 V2000
   10.6306  -10.3483   32.5423 C   0  0  0  0  0  0  0  0  0  0  0  0
    9.4620   -9.9557   33.1773 C   0  0  0  0  0  0  0  0  0  0  0  0
    8.6793  -10.9391   33.8222 C   0  0  0  0  0  0  0  0  0  0  0  0
    9.1465  -12.2765   33.9138 C   0  0  0  0  0  0  0  0  0  0  0  0
   10.3728  -12.6034   33.3256 C   0  0  0  0  0  0  0  0  0  0  0  0
    5.9325   -9.4607   37.5834 C   0  0  0  0  0  0  0  0  0  0  0  0
    9.1427   -8.7246   33.1644 O   0  0  0  0  0  0  0  0  0  0  0  0
    8.3179  -16.6597   33.9979 O   0  0  0  0  0  0  0  0  0  0  0  0
    9.3566  -16.5530   36.3041 O   0  0  0  0  0  0  0  0  0  0  0  0
    7.1406  -15.4101   35.8184 O   0  0  0  0  0  0  0  0  0  0  0  0
    9.2318  -14.4557   34.9722 O   0  0  0  0  0  0  0  0  0  0  0  0
    7.2585  -10.0088   35.5579 N   0  0  0  0  0  0  0  0  0  0  0  0
    8.4900  -15.8609   35.2742 P   0  0  2  0  0  0  0  0  0  0  0  0
   11.4349   -9.3768   31.7263 C   0  0  0  0  0  0  0  0  0  0  0  0
    7.3595  -10.5854   34.4188 C   0  0  0  0  0  0  0  0  0  0  0  0
    8.3940  -13.3349   34.6696 C   0  0  0  0  0  0  0  0  0  0  0  0
   11.0538  -11.6590   32.6765 N   0  0  0  0  0  0  0  0  0  0  0  0
    6.1165   -9.2569   36.0745 C   0  0  1  0  0  0  0  0  0  0  0  0
    4.8138   -9.5315   35.2780 C   0  0  0  0  0  0  0  0  0  0  0  0
    4.6007  -10.6937   34.8449 O   0  0  0  0  0  0  0  0  0  0  0  0
    6.0849  -10.9394   37.8834 C   0  0  0  0  0  0  0  0  0  0  0  0
    5.6690  -11.2907   39.2838 C   0  0  0  0  0  0  0  0  0  0  0  0
    5.7015  -12.7301   39.4248 N   0  0  0  0  0  0  0  0  0  0  0  0
    5.3061  -13.3614   40.5240 C   0  0  0  0  0  0  0  0  0  0  0  0
    5.3561  -14.6724   40.5789 N   0  0  0  0  0  0  0  0  0  0  0  0
    4.9187  -12.6713   41.5777 N   0  0  0  0  0  0  0  0  0  0  0  0
    4.0246   -8.5522   35.1274 O   0  0  0  0  0  0  0  0  0  0  0  0
   10.7701  -13.6266   33.3977 H   0  0  0  0  0  0  0  0  0  0  0  0
    6.6953   -8.8888   38.1321 H   0  0  0  0  0  0  0  0  0  0  0  0
    4.9379   -9.1099   37.8959 H   0  0  0  0  0  0  0  0  0  0  0  0
    8.3124   -8.4239   33.6119 H   0  0  0  0  0  0  0  0  0  0  0  0
   11.9905   -8.7057   32.3979 H   0  0  0  0  0  0  0  0  0  0  0  0
   12.1434   -9.9294   31.0918 H   0  0  0  0  0  0  0  0  0  0  0  0
   10.7598   -8.7839   31.0918 H   0  0  0  0  0  0  0  0  0  0  0  0
    6.4422  -10.8276   33.8622 H   0  0  0  0  0  0  0  0  0  0  0  0
    8.0183  -12.9047   35.6097 H   0  0  0  0  0  0  0  0  0  0  0  0
    7.5621  -13.6843   34.0404 H   0  0  0  0  0  0  0  0  0  0  0  0
    6.3468   -8.1920   35.9234 H   0  0  0  0  0  0  0  0  0  0  0  0
    5.4616  -11.5082   37.1777 H   0  0  0  0  0  0  0  0  0  0  0  0
    7.1503  -11.1926   37.7789 H   0  0  0  0  0  0  0  0  0  0  0  0
    6.3631  -10.8316   40.0032 H   0  0  0  0  0  0  0  0  0  0  0  0
    4.6540  -10.9154   39.4808 H   0  0  0  0  0  0  0  0  0  0  0  0
    6.0480  -13.2924   38.6345 H   0  0  0  0  0  0  0  0  0  0  0  0
    5.0500  -15.1642   41.4305 H   0  0  0  0  0  0  0  0  0  0  0  0
    5.7015  -15.2089   39.7704 H   0  0  0  0  0  0  0  0  0  0  0  0
    4.6121  -13.1615   42.4301 H   0  0  0  0  0  0  0  0  0  0  0  0
    4.9226  -11.6417   41.5489 H   0  0  0  0  0  0  0  0  0  0  0  0
  1  2  2  0
  1 14  1  0
  1 17  1  0
  2  3  1  0
  2  7  1  0
  3  4  2  0
  3 15  1  0
  4  5  1  0
  4 16  1  0
  5 17  2  0
 18  6  1  0
  6 21  1  0
 13  8  1  6
  9 13  1  0
 10 13  2  0
 11 13  1  0
 11 16  1  0
 12 15  2  3
 12 18  1  0
 18 19  1  0
 19 20  1  0
 19 27  2  0
 21 22  1  0
 22 23  1  0
 23 24  1  0
 24 25  1  0
 24 26  2  0
  5 28  1  0
  6 29  1  0
  6 30  1  0
  7 31  1  0
 14 32  1  0
 14 33  1  0
 14 34  1  0
 15 35  1  0
 16 36  1  0
 16 37  1  0
 18 38  1  1
 21 39  1  0
 21 40  1  0
 22 41  1  0
 22 42  1  0
 23 43  1  0
 25 44  1  0
 25 45  1  0
 26 46  1  0
 26 47  1  0
M  CHG  4   8  -1   9  -1  20  -1  26   1
M  END
>  <filename_input>  (18) 
8D5D_5DK_docked.sdf

>  <pdb_id>  (18) 
8D5D_5DK

>  <pose_rank>  (18) 
17

>  <num_atoms_heavy>  (18) 
27

>  <num_torsions>  (18) 
10

>  <pose>  (18) 
[10.63064884893451, -10.34826662732817, 32.542349589735096, -1.5146092999172807, -2.314398537391981, -1.4982790357467348, -1.296295667188393, -4.5168640580192845, 0.004407731764239761, 2.7123127041293613, 6.372125756529524, 0.07638676233303915, 0.1817696158881354, 2.3937684864621653, 0.5314726518241705, -3.549405779880993]

>  <energy>  (18) 
-553.1590524781299

>  <inter_energy>  (18) 
-575.1973811402739

>  <intra_energy>  (18) 
22.3730787361404

>  <rmsd>  (18) 
8.43707

>  <sdf_rank>  (18) 
0

$$$$

     RDKit          3D

 47 47  0  0  0  0  0  0  0  0999 V2000
    7.2962  -10.7078   35.5425 C   0  0  0  0  0  0  0  0  0  0  0  0
    6.7432  -10.5419   36.8033 C   0  0  0  0  0  0  0  0  0  0  0  0
    5.5646   -9.7732   36.9293 C   0  0  0  0  0  0  0  0  0  0  0  0
    4.9039   -9.2844   35.7718 C   0  0  0  0  0  0  0  0  0  0  0  0
    5.4606   -9.5491   34.5161 C   0  0  0  0  0  0  0  0  0  0  0  0
    5.0374   -8.4649   41.4312 C   0  0  0  0  0  0  0  0  0  0  0  0
    7.3108  -11.0953   37.7979 O   0  0  0  0  0  0  0  0  0  0  0  0
    0.8194   -8.8639   33.8055 O   0  0  0  0  0  0  0  0  0  0  0  0
    2.8271   -9.0361   32.2732 O   0  0  0  0  0  0  0  0  0  0  0  0
    2.6406  -10.4925   34.3460 O   0  0  0  0  0  0  0  0  0  0  0  0
    3.1664   -8.1094   34.5567 O   0  0  0  0  0  0  0  0  0  0  0  0
    5.3958   -8.4759   38.9751 N   0  0  0  0  0  0  0  0  0  0  0  0
    2.3004   -9.1623   33.6865 P   0  0  2  0  0  0  0  0  0  0  0  0
    8.6176  -11.3981   35.3590 C   0  0  0  0  0  0  0  0  0  0  0  0
    4.9975   -9.4714   38.2747 C   0  0  0  0  0  0  0  0  0  0  0  0
    3.5995   -8.5427   35.8506 C   0  0  0  0  0  0  0  0  0  0  0  0
    6.6048  -10.2292   34.4434 N   0  0  0  0  0  0  0  0  0  0  0  0
    4.6907   -7.8284   40.0796 C   0  0  1  0  0  0  0  0  0  0  0  0
    3.1601   -7.7448   39.8410 C   0  0  0  0  0  0  0  0  0  0  0  0
    2.7066   -8.0318   38.7027 O   0  0  0  0  0  0  0  0  0  0  0  0
    5.1281   -9.9664   41.2380 C   0  0  0  0  0  0  0  0  0  0  0  0
    6.3125  -10.5686   41.9393 C   0  0  0  0  0  0  0  0  0  0  0  0
    6.2086  -10.2733   43.3517 N   0  0  0  0  0  0  0  0  0  0  0  0
    7.2585   -9.9917   44.1142 C   0  0  0  0  0  0  0  0  0  0  0  0
    7.0885   -9.7255   45.3887 N   0  0  0  0  0  0  0  0  0  0  0  0
    8.4735  -10.0358   43.6058 N   0  0  0  0  0  0  0  0  0  0  0  0
    2.4498   -7.4032   40.8326 O   0  0  0  0  0  0  0  0  0  0  0  0
    4.9605   -9.2006   33.6003 H   0  0  0  0  0  0  0  0  0  0  0  0
    6.0022   -8.0765   41.7893 H   0  0  0  0  0  0  0  0  0  0  0  0
    4.2635   -8.2234   42.1747 H   0  0  0  0  0  0  0  0  0  0  0  0
    6.9318  -10.9890   38.7063 H   0  0  0  0  0  0  0  0  0  0  0  0
    9.0525  -11.6253   36.3436 H   0  0  0  0  0  0  0  0  0  0  0  0
    8.4682  -12.3334   34.7996 H   0  0  0  0  0  0  0  0  0  0  0  0
    9.3000  -10.7413   34.7996 H   0  0  0  0  0  0  0  0  0  0  0  0
    4.2109  -10.1254   38.6792 H   0  0  0  0  0  0  0  0  0  0  0  0
    2.8353   -9.2073   36.2799 H   0  0  0  0  0  0  0  0  0  0  0  0
    3.7439   -7.6543   36.4830 H   0  0  0  0  0  0  0  0  0  0  0  0
    5.0502   -6.7894   40.1161 H   0  0  0  0  0  0  0  0  0  0  0  0
    4.2118  -10.4285   41.6339 H   0  0  0  0  0  0  0  0  0  0  0  0
    5.2461  -10.1572   40.1611 H   0  0  0  0  0  0  0  0  0  0  0  0
    6.3191  -11.6581   41.7875 H   0  0  0  0  0  0  0  0  0  0  0  0
    7.2445  -10.1480   41.5338 H   0  0  0  0  0  0  0  0  0  0  0  0
    5.2750  -10.2818   43.7869 H   0  0  0  0  0  0  0  0  0  0  0  0
    7.9015   -9.5068   45.9821 H   0  0  0  0  0  0  0  0  0  0  0  0
    6.1421   -9.7353   45.7951 H   0  0  0  0  0  0  0  0  0  0  0  0
    9.2877   -9.8173   44.1977 H   0  0  0  0  0  0  0  0  0  0  0  0
    8.6090  -10.2887   42.6166 H   0  0  0  0  0  0  0  0  0  0  0  0
  1  2  2  0
  1 14  1  0
  1 17  1  0
  2  3  1  0
  2  7  1  0
  3  4  2  0
  3 15  1  0
  4  5  1  0
  4 16  1  0
  5 17  2  0
 18  6  1  0
  6 21  1  0
 13  8  1  6
  9 13  1  0
 10 13  2  0
 11 13  1  0
 11 16  1  0
 12 15  2  3
 12 18  1  0
 18 19  1  0
 19 20  1  0
 19 27  2  0
 21 22  1  0
 22 23  1  0
 23 24  1  0
 24 25  1  0
 24 26  2  0
  5 28  1  0
  6 29  1  0
  6 30  1  0
  7 31  1  0
 14 32  1  0
 14 33  1  0
 14 34  1  0
 15 35  1  0
 16 36  1  0
 16 37  1  0
 18 38  1  1
 21 39  1  0
 21 40  1  0
 22 41  1  0
 22 42  1  0
 23 43  1  0
 25 44  1  0
 25 45  1  0
 26 46  1  0
 26 47  1  0
M  CHG  4   8  -1   9  -1  20  -1  26   1
M  END
>  <filename_input>  (19) 
8D5D_5DK_docked.sdf

>  <pdb_id>  (19) 
8D5D_5DK

>  <pose_rank>  (19) 
18

>  <num_atoms_heavy>  (19) 
27

>  <num_torsions>  (19) 
10

>  <pose>  (19) 
[7.296216572393117, -10.707775753270035, 35.542487444476215, -2.118092026816566, 0.9233790105220031, -2.22985956392267, 1.5803029225929368, 0.823529113457628, -0.8155268494193572, -3.480209975143374, -0.8605918136864495, -1.9238175355299678, 0.7545271076347463, 2.038198690198598, -1.4806754634621277, 2.8733438763780605]

>  <energy>  (19) 
-499.1312828519355

>  <inter_energy>  (19) 
-575.7598354260757

>  <intra_energy>  (19) 
91.40247652015212

>  <rmsd>  (19) 
6.80392

>  <sdf_rank>  (19) 
0

$$$$

     RDKit          3D

 47 47  0  0  0  0  0  0  0  0999 V2000
    9.9510  -13.8026   35.1082 C   0  0  0  0  0  0  0  0  0  0  0  0
    8.8674  -12.9743   35.3590 C   0  0  0  0  0  0  0  0  0  0  0  0
    8.7011  -11.8185   34.5638 C   0  0  0  0  0  0  0  0  0  0  0  0
    9.5617  -11.5815   33.4599 C   0  0  0  0  0  0  0  0  0  0  0  0
   10.5911  -12.4924   33.2005 C   0  0  0  0  0  0  0  0  0  0  0  0
    4.7797   -9.5065   35.3990 C   0  0  0  0  0  0  0  0  0  0  0  0
    8.0583  -13.2899   36.2881 O   0  0  0  0  0  0  0  0  0  0  0  0
   12.8343   -9.5465   32.8585 O   0  0  0  0  0  0  0  0  0  0  0  0
   11.6724   -7.9715   31.2528 O   0  0  0  0  0  0  0  0  0  0  0  0
   10.7049   -8.4326   33.5558 O   0  0  0  0  0  0  0  0  0  0  0  0
   10.5602  -10.1295   31.7953 O   0  0  0  0  0  0  0  0  0  0  0  0
    6.6511  -11.1161   35.6596 N   0  0  0  0  0  0  0  0  0  0  0  0
   11.5175   -8.9660   32.3832 P   0  0  2  0  0  0  0  0  0  0  0  0
   10.2589  -14.9701   36.0018 C   0  0  0  0  0  0  0  0  0  0  0  0
    7.6193  -10.8388   34.8685 C   0  0  0  0  0  0  0  0  0  0  0  0
    9.3661  -10.4167   32.5311 C   0  0  0  0  0  0  0  0  0  0  0  0
   10.7498  -13.5402   34.0091 N   0  0  0  0  0  0  0  0  0  0  0  0
    5.7751  -10.1752   36.3550 C   0  0  1  0  0  0  0  0  0  0  0  0
    6.5641   -9.1433   37.2033 C   0  0  0  0  0  0  0  0  0  0  0  0
    7.2992   -8.3086   36.6143 O   0  0  0  0  0  0  0  0  0  0  0  0
    4.0952   -8.3760   36.1429 C   0  0  0  0  0  0  0  0  0  0  0  0
    3.8781   -8.6888   37.5963 C   0  0  0  0  0  0  0  0  0  0  0  0
    2.6157   -8.1131   38.0061 N   0  0  0  0  0  0  0  0  0  0  0  0
    2.2411   -8.0128   39.2760 C   0  0  0  0  0  0  0  0  0  0  0  0
    1.0831   -7.4711   39.5753 N   0  0  0  0  0  0  0  0  0  0  0  0
    3.0041   -8.5078   40.2297 N   0  0  0  0  0  0  0  0  0  0  0  0
    6.4002   -9.1975   38.4581 O   0  0  0  0  0  0  0  0  0  0  0  0
   11.2610  -12.3459   32.3404 H   0  0  0  0  0  0  0  0  0  0  0  0
    5.3142   -9.1070   34.5245 H   0  0  0  0  0  0  0  0  0  0  0  0
    4.0356  -10.2385   35.0519 H   0  0  0  0  0  0  0  0  0  0  0  0
    7.2785  -12.7120   36.4830 H   0  0  0  0  0  0  0  0  0  0  0  0
   10.1767  -14.6586   37.0535 H   0  0  0  0  0  0  0  0  0  0  0  0
    9.5442  -15.7824   35.8031 H   0  0  0  0  0  0  0  0  0  0  0  0
   11.2811  -15.3244   35.8031 H   0  0  0  0  0  0  0  0  0  0  0  0
    7.6540   -9.8449   34.3984 H   0  0  0  0  0  0  0  0  0  0  0  0
    8.5582  -10.6548   31.8235 H   0  0  0  0  0  0  0  0  0  0  0  0
    9.1094   -9.5328   33.1334 H   0  0  0  0  0  0  0  0  0  0  0  0
    5.1823  -10.7661   37.0687 H   0  0  0  0  0  0  0  0  0  0  0  0
    4.7206   -7.4743   36.0663 H   0  0  0  0  0  0  0  0  0  0  0  0
    3.1073   -8.2248   35.6835 H   0  0  0  0  0  0  0  0  0  0  0  0
    3.8533   -9.7789   37.7416 H   0  0  0  0  0  0  0  0  0  0  0  0
    4.6971   -8.2689   38.1987 H   0  0  0  0  0  0  0  0  0  0  0  0
    1.9767   -7.7640   37.2776 H   0  0  0  0  0  0  0  0  0  0  0  0
    0.7904   -7.3924   40.5598 H   0  0  0  0  0  0  0  0  0  0  0  0
    0.4673   -7.1250   38.8257 H   0  0  0  0  0  0  0  0  0  0  0  0
    2.7131   -8.4298   41.2146 H   0  0  0  0  0  0  0  0  0  0  0  0
    3.8915   -8.9726   39.9901 H   0  0  0  0  0  0  0  0  0  0  0  0
  1  2  2  0
  1 14  1  0
  1 17  1  0
  2  3  1  0
  2  7  1  0
  3  4  2  0
  3 15  1  0
  4  5  1  0
  4 16  1  0
  5 17  2  0
 18  6  1  0
  6 21  1  0
 13  8  1  1
  9 13  1  0
 10 13  2  0
 11 13  1  0
 11 16  1  0
 12 15  2  3
 12 18  1  0
 18 19  1  0
 19 20  1  0
 19 27  2  0
 21 22  1  0
 22 23  1  0
 23 24  1  0
 24 25  1  0
 24 26  2  0
  5 28  1  0
  6 29  1  0
  6 30  1  0
  7 31  1  0
 14 32  1  0
 14 33  1  0
 14 34  1  0
 15 35  1  0
 16 36  1  0
 16 37  1  0
 18 38  1  1
 21 39  1  0
 21 40  1  0
 22 41  1  0
 22 42  1  0
 23 43  1  0
 25 44  1  0
 25 45  1  0
 26 46  1  0
 26 47  1  0
M  CHG  4   8  -1   9  -1  20  -1  26   1
M  END
>  <filename_input>  (20) 
8D5D_5DK_docked.sdf

>  <pdb_id>  (20) 
8D5D_5DK

>  <pose_rank>  (20) 
19

>  <num_atoms_heavy>  (20) 
27

>  <num_torsions>  (20) 
10

>  <pose>  (20) 
[9.950979056029734, -13.802586286188752, 35.108220344965694, 0.40820639935348924, -1.1322426950240359, 2.6204473094434575, -0.16118235823554344, 0.5229240643005524, 0.5150719862623365, 0.5299379237721797, 2.433154353474642, 0.8204222591752416, 0.31467302112965184, -4.539719792371423, 1.6100769980818979, 3.125896606244611]

>  <energy>  (20) 
-529.1586283599858

>  <inter_energy>  (20) 
-621.139444482174

>  <intra_energy>  (20) 
94.68104109900882

>  <rmsd>  (20) 
8.49972

>  <sdf_rank>  (20) 
0

$$$$

     RDKit          3D

 47 47  0  0  0  0  0  0  0  0999 V2000
    1.5844   -9.0078   34.2846 C   0  0  0  0  0  0  0  0  0  0  0  0
    2.9288   -9.3478   34.2856 C   0  0  0  0  0  0  0  0  0  0  0  0
    3.7375   -8.9064   35.3566 C   0  0  0  0  0  0  0  0  0  0  0  0
    3.1540   -8.2312   36.4607 C   0  0  0  0  0  0  0  0  0  0  0  0
    1.7772   -7.9841   36.4481 C   0  0  0  0  0  0  0  0  0  0  0  0
    7.3679  -12.0134   36.3295 C   0  0  0  0  0  0  0  0  0  0  0  0
    3.3824  -10.0521   33.3286 O   0  0  0  0  0  0  0  0  0  0  0  0
    4.7699   -7.5132   40.8415 O   0  0  0  0  0  0  0  0  0  0  0  0
    2.6733   -6.5124   39.8357 O   0  0  0  0  0  0  0  0  0  0  0  0
    2.5995   -8.7406   41.0532 O   0  0  0  0  0  0  0  0  0  0  0  0
    3.5903   -8.5889   38.8182 O   0  0  0  0  0  0  0  0  0  0  0  0
    5.7247  -10.2345   35.7853 N   0  0  0  0  0  0  0  0  0  0  0  0
    3.4194   -7.7761   40.2060 P   0  0  2  0  0  0  0  0  0  0  0  0
    0.7029   -9.3301   33.1118 C   0  0  0  0  0  0  0  0  0  0  0  0
    5.2086   -9.1484   35.3446 C   0  0  0  0  0  0  0  0  0  0  0  0
    3.9576   -7.8259   37.6638 C   0  0  0  0  0  0  0  0  0  0  0  0
    1.0587   -8.3661   35.3923 N   0  0  0  0  0  0  0  0  0  0  0  0
    7.0479  -10.7760   35.4818 C   0  0  1  0  0  0  0  0  0  0  0  0
    8.1635   -9.7008   35.5611 C   0  0  0  0  0  0  0  0  0  0  0  0
    9.0857   -9.7187   34.7049 O   0  0  0  0  0  0  0  0  0  0  0  0
    8.6198  -12.6604   35.7690 C   0  0  0  0  0  0  0  0  0  0  0  0
    8.3856  -14.0728   35.3133 C   0  0  0  0  0  0  0  0  0  0  0  0
    9.0394  -14.2573   34.0360 N   0  0  0  0  0  0  0  0  0  0  0  0
   10.0651  -15.0813   33.8572 C   0  0  0  0  0  0  0  0  0  0  0  0
   10.6050  -15.2046   32.6666 N   0  0  0  0  0  0  0  0  0  0  0  0
   10.5765  -15.7301   34.8839 N   0  0  0  0  0  0  0  0  0  0  0  0
    8.0621   -8.8465   36.4907 O   0  0  0  0  0  0  0  0  0  0  0  0
    1.2937   -7.4811   37.2985 H   0  0  0  0  0  0  0  0  0  0  0  0
    7.5388  -11.7150   37.3744 H   0  0  0  0  0  0  0  0  0  0  0  0
    6.5275  -12.7224   36.2995 H   0  0  0  0  0  0  0  0  0  0  0  0
    4.3392  -10.3056   33.3108 H   0  0  0  0  0  0  0  0  0  0  0  0
   -0.2727   -9.6869   33.4735 H   0  0  0  0  0  0  0  0  0  0  0  0
    0.5596   -8.4262   32.5015 H   0  0  0  0  0  0  0  0  0  0  0  0
    1.1765  -10.1132   32.5015 H   0  0  0  0  0  0  0  0  0  0  0  0
    5.8727   -8.3684   34.9439 H   0  0  0  0  0  0  0  0  0  0  0  0
    5.0249   -7.9877   37.4525 H   0  0  0  0  0  0  0  0  0  0  0  0
    3.7576   -6.7645   37.8723 H   0  0  0  0  0  0  0  0  0  0  0  0
    7.0190  -11.1078   34.4334 H   0  0  0  0  0  0  0  0  0  0  0  0
    8.9694  -12.0669   34.9114 H   0  0  0  0  0  0  0  0  0  0  0  0
    9.3686  -12.6899   36.5742 H   0  0  0  0  0  0  0  0  0  0  0  0
    8.8048  -14.7745   36.0495 H   0  0  0  0  0  0  0  0  0  0  0  0
    7.3067  -14.2633   35.2155 H   0  0  0  0  0  0  0  0  0  0  0  0
    8.6924  -13.7237   33.2262 H   0  0  0  0  0  0  0  0  0  0  0  0
   11.4007  -15.8432   32.5255 H   0  0  0  0  0  0  0  0  0  0  0  0
   10.2327  -14.6627   31.8737 H   0  0  0  0  0  0  0  0  0  0  0  0
   11.3722  -16.3692   34.7447 H   0  0  0  0  0  0  0  0  0  0  0  0
   10.1806  -15.5982   35.8255 H   0  0  0  0  0  0  0  0  0  0  0  0
  1  2  2  0
  1 14  1  0
  1 17  1  0
  2  3  1  0
  2  7  1  0
  3  4  2  0
  3 15  1  0
  4  5  1  0
  4 16  1  0
  5 17  2  0
 18  6  1  0
  6 21  1  0
 13  8  1  1
  9 13  1  0
 10 13  2  0
 11 13  1  0
 11 16  1  0
 12 15  2  3
 12 18  1  0
 18 19  1  0
 19 20  1  0
 19 27  2  0
 21 22  1  0
 22 23  1  0
 23 24  1  0
 24 25  1  0
 24 26  2  0
  5 28  1  0
  6 29  1  0
  6 30  1  0
  7 31  1  0
 14 32  1  0
 14 33  1  0
 14 34  1  0
 15 35  1  0
 16 36  1  0
 16 37  1  0
 18 38  1  6
 21 39  1  0
 21 40  1  0
 22 41  1  0
 22 42  1  0
 23 43  1  0
 25 44  1  0
 25 45  1  0
 26 46  1  0
 26 47  1  0
M  CHG  4   8  -1   9  -1  20  -1  26   1
M  END
>  <filename_input>  (21) 
8D5D_5DK_docked.sdf

>  <pdb_id>  (21) 
8D5D_5DK

>  <pose_rank>  (21) 
20

>  <num_atoms_heavy>  (21) 
27

>  <num_torsions>  (21) 
10

>  <pose>  (21) 
[1.5844178918704335, -9.007758907869496, 34.28460942703492, 2.553810337089139, -0.8220304433602736, -0.6129735114328515, -1.4210726118321486, 2.2730021308425203, -3.0880379182488094, 0.16122598713932115, 0.9466084387319245, -0.574083549519258, -1.035314028255127, -3.003859845980766, 0.9106744272402107, -0.24764483437672438]

>  <energy>  (21) 
-599.3919156804594

>  <inter_energy>  (21) 
-612.9169822526957

>  <intra_energy>  (21) 
14.725447869012267

>  <rmsd>  (21) 
5.03607

>  <sdf_rank>  (21) 
0

$$$$

     RDKit          3D

 47 47  0  0  0  0  0  0  0  0999 V2000
    1.6170   -9.2018   33.9117 C   0  0  0  0  0  0  0  0  0  0  0  0
    1.8922   -8.4684   35.0560 C   0  0  0  0  0  0  0  0  0  0  0  0
    3.1349   -8.6604   35.7000 C   0  0  0  0  0  0  0  0  0  0  0  0
    4.1196   -9.4996   35.1158 C   0  0  0  0  0  0  0  0  0  0  0  0
    3.8212  -10.1542   33.9161 C   0  0  0  0  0  0  0  0  0  0  0  0
    5.4394   -9.1310   39.8499 C   0  0  0  0  0  0  0  0  0  0  0  0
    1.0211   -7.6434   35.4781 O   0  0  0  0  0  0  0  0  0  0  0  0
    7.8149  -11.4756   36.2219 O   0  0  0  0  0  0  0  0  0  0  0  0
    8.6732  -10.7713   33.9468 O   0  0  0  0  0  0  0  0  0  0  0  0
    8.4976   -9.0972   35.8492 O   0  0  0  0  0  0  0  0  0  0  0  0
    6.4782   -9.8785   34.7039 O   0  0  0  0  0  0  0  0  0  0  0  0
    3.8350   -8.6247   38.0249 N   0  0  0  0  0  0  0  0  0  0  0  0
    7.9391  -10.3592   35.2046 P   0  0  2  0  0  0  0  0  0  0  0  0
    0.2655   -9.1437   33.2587 C   0  0  0  0  0  0  0  0  0  0  0  0
    3.4301   -7.9814   36.9942 C   0  0  0  0  0  0  0  0  0  0  0  0
    5.4881   -9.6610   35.7148 C   0  0  0  0  0  0  0  0  0  0  0  0
    2.6160   -9.9916   33.3702 N   0  0  0  0  0  0  0  0  0  0  0  0
    4.5312   -8.0853   39.1914 C   0  0  1  0  0  0  0  0  0  0  0  0
    3.5646   -7.4193   40.2059 C   0  0  0  0  0  0  0  0  0  0  0  0
    2.5572   -6.8036   39.7702 O   0  0  0  0  0  0  0  0  0  0  0  0
    5.0822  -10.4919   39.2839 C   0  0  0  0  0  0  0  0  0  0  0  0
    6.1349  -11.5274   39.5612 C   0  0  0  0  0  0  0  0  0  0  0  0
    5.4815  -12.7370   40.0115 N   0  0  0  0  0  0  0  0  0  0  0  0
    5.3973  -13.0843   41.2903 C   0  0  0  0  0  0  0  0  0  0  0  0
    4.7817  -14.1941   41.6273 N   0  0  0  0  0  0  0  0  0  0  0  0
    5.9797  -12.3464   42.2138 N   0  0  0  0  0  0  0  0  0  0  0  0
    3.8484   -7.5562   41.4327 O   0  0  0  0  0  0  0  0  0  0  0  0
    4.5714  -10.7948   33.4295 H   0  0  0  0  0  0  0  0  0  0  0  0
    6.4924   -8.9010   39.6303 H   0  0  0  0  0  0  0  0  0  0  0  0
    5.2983   -9.1241   40.9408 H   0  0  0  0  0  0  0  0  0  0  0  0
    1.1983   -7.1102   36.2932 H   0  0  0  0  0  0  0  0  0  0  0  0
   -0.5149   -9.1101   34.0333 H   0  0  0  0  0  0  0  0  0  0  0  0
    0.1993   -8.2419   32.6323 H   0  0  0  0  0  0  0  0  0  0  0  0
    0.1222  -10.0365   32.6323 H   0  0  0  0  0  0  0  0  0  0  0  0
    3.2956   -6.8921   37.0661 H   0  0  0  0  0  0  0  0  0  0  0  0
    5.7432   -8.7496   36.2754 H   0  0  0  0  0  0  0  0  0  0  0  0
    5.4740  -10.5370   36.3799 H   0  0  0  0  0  0  0  0  0  0  0  0
    5.1863   -7.2821   38.8230 H   0  0  0  0  0  0  0  0  0  0  0  0
    4.1349  -10.8232   39.7342 H   0  0  0  0  0  0  0  0  0  0  0  0
    4.9976  -10.3869   38.1921 H   0  0  0  0  0  0  0  0  0  0  0  0
    6.7042  -11.7330   38.6427 H   0  0  0  0  0  0  0  0  0  0  0  0
    6.8276  -11.1630   40.3342 H   0  0  0  0  0  0  0  0  0  0  0  0
    5.0614  -13.3589   39.3060 H   0  0  0  0  0  0  0  0  0  0  0  0
    4.7151  -14.4655   42.6186 H   0  0  0  0  0  0  0  0  0  0  0  0
    4.3655  -14.7933   40.9002 H   0  0  0  0  0  0  0  0  0  0  0  0
    5.9140  -12.6162   43.2057 H   0  0  0  0  0  0  0  0  0  0  0  0
    6.5006  -11.4998   41.9438 H   0  0  0  0  0  0  0  0  0  0  0  0
  1  2  2  0
  1 14  1  0
  1 17  1  0
  2  3  1  0
  2  7  1  0
  3  4  2  0
  3 15  1  0
  4  5  1  0
  4 16  1  0
  5 17  2  0
 18  6  1  0
  6 21  1  0
 13  8  1  1
  9 13  1  0
 10 13  2  0
 11 13  1  0
 11 16  1  0
 12 15  2  3
 12 18  1  0
 18 19  1  0
 19 20  1  0
 19 27  2  0
 21 22  1  0
 22 23  1  0
 23 24  1  0
 24 25  1  0
 24 26  2  0
  5 28  1  0
  6 29  1  0
  6 30  1  0
  7 31  1  0
 14 32  1  0
 14 33  1  0
 14 34  1  0
 15 35  1  0
 16 36  1  0
 16 37  1  0
 18 38  1  6
 21 39  1  0
 21 40  1  0
 22 41  1  0
 22 42  1  0
 23 43  1  0
 25 44  1  0
 25 45  1  0
 26 46  1  0
 26 47  1  0
M  CHG  4   8  -1   9  -1  20  -1  26   1
M  END
>  <filename_input>  (22) 
8D5D_5DK_docked.sdf

>  <pdb_id>  (22) 
8D5D_5DK

>  <pose_rank>  (22) 
21

>  <num_atoms_heavy>  (22) 
27

>  <num_torsions>  (22) 
10

>  <pose>  (22) 
[1.6169806831467608, -9.201760668922814, 33.911716561171644, -0.9560491604848156, -1.731739895685288, 0.5646203195054312, 14.87926128068938, -34.81415820940123, -1.2467206314994468, -28.156361603702702, -12.94196250050104, -50.861152491936714, -23.632828620618408, -16.206230955822214, 0.35512963505473305, 8.241754812458629]

>  <energy>  (22) 
-528.3727294159215

>  <inter_energy>  (22) 
-559.1521330978104

>  <intra_energy>  (22) 
20.902008060392106

>  <rmsd>  (22) 
6.58926

>  <sdf_rank>  (22) 
0

$$$$

     RDKit          3D

 47 47  0  0  0  0  0  0  0  0999 V2000
   10.3448   -9.6859   32.4862 C   0  0  0  0  0  0  0  0  0  0  0  0
    9.8610  -10.9713   32.6775 C   0  0  0  0  0  0  0  0  0  0  0  0
    8.9099  -11.1912   33.6987 C   0  0  0  0  0  0  0  0  0  0  0  0
    8.3802  -10.0951   34.4290 C   0  0  0  0  0  0  0  0  0  0  0  0
    8.8431   -8.8069   34.1408 C   0  0  0  0  0  0  0  0  0  0  0  0
    8.5562  -14.3893   37.1930 C   0  0  0  0  0  0  0  0  0  0  0  0
   10.2831  -11.9028   31.9212 O   0  0  0  0  0  0  0  0  0  0  0  0
    4.5434  -11.0580   35.8168 O   0  0  0  0  0  0  0  0  0  0  0  0
    4.8667   -9.0911   37.3774 O   0  0  0  0  0  0  0  0  0  0  0  0
    3.9298   -8.7599   35.0397 O   0  0  0  0  0  0  0  0  0  0  0  0
    6.3108   -9.2394   35.3573 O   0  0  0  0  0  0  0  0  0  0  0  0
    8.8898  -13.2238   35.0271 N   0  0  0  0  0  0  0  0  0  0  0  0
    4.8422   -9.5778   35.9444 P   0  0  2  0  0  0  0  0  0  0  0  0
   11.4532   -9.4108   31.5103 C   0  0  0  0  0  0  0  0  0  0  0  0
    8.4466  -12.5719   34.0177 C   0  0  0  0  0  0  0  0  0  0  0  0
    7.3000  -10.2694   35.4588 C   0  0  0  0  0  0  0  0  0  0  0  0
    9.7833   -8.6482   33.2092 N   0  0  0  0  0  0  0  0  0  0  0  0
    8.2675  -14.3699   35.6870 C   0  0  1  0  0  0  0  0  0  0  0  0
    8.6202  -15.7157   35.0003 C   0  0  0  0  0  0  0  0  0  0  0  0
    7.6855  -16.4861   34.6588 O   0  0  0  0  0  0  0  0  0  0  0  0
    7.2355  -14.5222   37.9266 C   0  0  0  0  0  0  0  0  0  0  0  0
    7.1665  -13.6577   39.1534 C   0  0  0  0  0  0  0  0  0  0  0  0
    5.7812  -13.5370   39.5525 N   0  0  0  0  0  0  0  0  0  0  0  0
    5.4020  -13.3367   40.8092 C   0  0  0  0  0  0  0  0  0  0  0  0
    4.1256  -13.2290   41.0978 N   0  0  0  0  0  0  0  0  0  0  0  0
    6.3012  -13.3036   41.7720 N   0  0  0  0  0  0  0  0  0  0  0  0
    9.8503  -15.9485   34.8081 O   0  0  0  0  0  0  0  0  0  0  0  0
    8.4366   -7.9361   34.6761 H   0  0  0  0  0  0  0  0  0  0  0  0
    9.2053  -15.2432   37.4369 H   0  0  0  0  0  0  0  0  0  0  0  0
    9.0667  -13.4626   37.4941 H   0  0  0  0  0  0  0  0  0  0  0  0
    9.9500  -12.8273   32.0415 H   0  0  0  0  0  0  0  0  0  0  0  0
   12.3776   -9.1814   32.0606 H   0  0  0  0  0  0  0  0  0  0  0  0
   11.6132  -10.2965   30.8779 H   0  0  0  0  0  0  0  0  0  0  0  0
   11.1805   -8.5531   30.8779 H   0  0  0  0  0  0  0  0  0  0  0  0
    7.6994  -13.0464   33.3646 H   0  0  0  0  0  0  0  0  0  0  0  0
    6.8166  -11.2460   35.3087 H   0  0  0  0  0  0  0  0  0  0  0  0
    7.7599  -10.2108   36.4564 H   0  0  0  0  0  0  0  0  0  0  0  0
    7.1804  -14.2461   35.5733 H   0  0  0  0  0  0  0  0  0  0  0  0
    6.4229  -14.2315   37.2446 H   0  0  0  0  0  0  0  0  0  0  0  0
    7.1383  -15.5689   38.2507 H   0  0  0  0  0  0  0  0  0  0  0  0
    7.7478  -14.1188   39.9655 H   0  0  0  0  0  0  0  0  0  0  0  0
    7.5847  -12.6634   38.9379 H   0  0  0  0  0  0  0  0  0  0  0  0
    5.0539  -13.6099   38.8268 H   0  0  0  0  0  0  0  0  0  0  0  0
    3.8292  -13.0736   42.0719 H   0  0  0  0  0  0  0  0  0  0  0  0
    3.4208  -13.2998   40.3500 H   0  0  0  0  0  0  0  0  0  0  0  0
    6.0066  -13.1483   42.7467 H   0  0  0  0  0  0  0  0  0  0  0  0
    7.2986  -13.4332   41.5499 H   0  0  0  0  0  0  0  0  0  0  0  0
  1  2  2  0
  1 14  1  0
  1 17  1  0
  2  3  1  0
  2  7  1  0
  3  4  2  0
  3 15  1  0
  4  5  1  0
  4 16  1  0
  5 17  2  0
 18  6  1  0
  6 21  1  0
 13  8  1  1
  9 13  1  0
 10 13  2  0
 11 13  1  0
 11 16  1  0
 12 15  2  3
 12 18  1  0
 18 19  1  0
 19 20  1  0
 19 27  2  0
 21 22  1  0
 22 23  1  0
 23 24  1  0
 24 25  1  0
 24 26  2  0
  5 28  1  0
  6 29  1  0
  6 30  1  0
  7 31  1  0
 14 32  1  0
 14 33  1  0
 14 34  1  0
 15 35  1  0
 16 36  1  0
 16 37  1  0
 18 38  1  1
 21 39  1  0
 21 40  1  0
 22 41  1  0
 22 42  1  0
 23 43  1  0
 25 44  1  0
 25 45  1  0
 26 46  1  0
 26 47  1  0
M  CHG  4   8  -1   9  -1  20  -1  26   1
M  END
>  <filename_input>  (23) 
8D5D_5DK_docked.sdf

>  <pdb_id>  (23) 
8D5D_5DK

>  <pose_rank>  (23) 
22

>  <num_atoms_heavy>  (23) 
27

>  <num_torsions>  (23) 
10

>  <pose>  (23) 
[10.344818001260272, -9.68592842208494, 32.48615252978713, 2.1533016262513995, -3.1606055459887767, 0.8081542623961314, 1.8610392459984373, 2.964251461633821, -2.854010650672103, -0.5586272461251683, 0.6075038367336824, -0.10286891231639488, -0.38699288441581736, 2.8176322182143045, -0.2630781220662046, 0.620077851691915]

>  <energy>  (23) 
-554.8176067630309

>  <inter_energy>  (23) 
-554.352485598478

>  <intra_energy>  (23) 
3.0200816344283417

>  <rmsd>  (23) 
7.84786

>  <sdf_rank>  (23) 
0

$$$$

     RDKit          3D

 47 47  0  0  0  0  0  0  0  0999 V2000
    8.0042   -9.8976   35.1239 C   0  0  0  0  0  0  0  0  0  0  0  0
    7.3024  -10.3493   36.2313 C   0  0  0  0  0  0  0  0  0  0  0  0
    7.3241  -11.7302   36.5289 C   0  0  0  0  0  0  0  0  0  0  0  0
    8.1440  -12.6102   35.7749 C   0  0  0  0  0  0  0  0  0  0  0  0
    8.8967  -12.0894   34.7171 C   0  0  0  0  0  0  0  0  0  0  0  0
    6.6217  -11.5350   41.0981 C   0  0  0  0  0  0  0  0  0  0  0  0
    6.6733   -9.5039   36.9435 O   0  0  0  0  0  0  0  0  0  0  0  0
    8.2483  -16.8414   35.1582 O   0  0  0  0  0  0  0  0  0  0  0  0
    9.0765  -15.3867   33.2591 O   0  0  0  0  0  0  0  0  0  0  0  0
   10.7103  -16.5856   34.7907 O   0  0  0  0  0  0  0  0  0  0  0  0
    9.4843  -14.6217   35.5907 O   0  0  0  0  0  0  0  0  0  0  0  0
    6.9623  -12.4551   38.8181 N   0  0  0  0  0  0  0  0  0  0  0  0
    9.3440  -15.9277   34.6471 P   0  0  2  0  0  0  0  0  0  0  0  0
    7.9117   -8.4665   34.6768 C   0  0  0  0  0  0  0  0  0  0  0  0
    6.4940  -12.2788   37.6393 C   0  0  0  0  0  0  0  0  0  0  0  0
    8.2713  -14.0688   36.1128 C   0  0  0  0  0  0  0  0  0  0  0  0
    8.8040  -10.7904   34.4323 N   0  0  0  0  0  0  0  0  0  0  0  0
    6.2078  -12.5880   40.0628 C   0  0  1  0  0  0  0  0  0  0  0  0
    6.2532  -14.0293   40.6352 C   0  0  0  0  0  0  0  0  0  0  0  0
    6.2003  -15.0011   39.8375 O   0  0  0  0  0  0  0  0  0  0  0  0
    5.3804  -10.7735   41.5213 C   0  0  0  0  0  0  0  0  0  0  0  0
    4.8837   -9.8396   40.4543 C   0  0  0  0  0  0  0  0  0  0  0  0
    3.8649   -8.9876   41.0279 N   0  0  0  0  0  0  0  0  0  0  0  0
    2.7930   -8.5836   40.3564 C   0  0  0  0  0  0  0  0  0  0  0  0
    1.9040   -7.8164   40.9440 N   0  0  0  0  0  0  0  0  0  0  0  0
    2.6509   -8.9045   39.0862 N   0  0  0  0  0  0  0  0  0  0  0  0
    6.3606  -14.1364   41.8928 O   0  0  0  0  0  0  0  0  0  0  0  0
    9.5564  -12.7432   34.1279 H   0  0  0  0  0  0  0  0  0  0  0  0
    7.0718  -12.0287   41.9720 H   0  0  0  0  0  0  0  0  0  0  0  0
    7.3611  -10.8457   40.6644 H   0  0  0  0  0  0  0  0  0  0  0  0
    6.1661   -9.8061   37.7382 H   0  0  0  0  0  0  0  0  0  0  0  0
    7.8692   -7.8092   35.5578 H   0  0  0  0  0  0  0  0  0  0  0  0
    8.7953   -8.2133   34.0726 H   0  0  0  0  0  0  0  0  0  0  0  0
    7.0028   -8.3292   34.0726 H   0  0  0  0  0  0  0  0  0  0  0  0
    5.4445  -12.5407   37.4393 H   0  0  0  0  0  0  0  0  0  0  0  0
    8.2670  -14.1844   37.2067 H   0  0  0  0  0  0  0  0  0  0  0  0
    7.4237  -14.6044   35.6604 H   0  0  0  0  0  0  0  0  0  0  0  0
    5.1542  -12.3924   39.8143 H   0  0  0  0  0  0  0  0  0  0  0  0
    4.5853  -11.4972   41.7540 H   0  0  0  0  0  0  0  0  0  0  0  0
    5.6454  -10.1657   42.3990 H   0  0  0  0  0  0  0  0  0  0  0  0
    5.7163   -9.2240   40.0830 H   0  0  0  0  0  0  0  0  0  0  0  0
    4.4655  -10.4146   39.6149 H   0  0  0  0  0  0  0  0  0  0  0  0
    3.9763   -8.6796   42.0044 H   0  0  0  0  0  0  0  0  0  0  0  0
    1.0718   -7.5018   40.4250 H   0  0  0  0  0  0  0  0  0  0  0  0
    2.0389   -7.5292   41.9239 H   0  0  0  0  0  0  0  0  0  0  0  0
    1.8193   -8.5909   38.5656 H   0  0  0  0  0  0  0  0  0  0  0  0
    3.3715   -9.4691   38.6139 H   0  0  0  0  0  0  0  0  0  0  0  0
  1  2  2  0
  1 14  1  0
  1 17  1  0
  2  3  1  0
  2  7  1  0
  3  4  2  0
  3 15  1  0
  4  5  1  0
  4 16  1  0
  5 17  2  0
 18  6  1  0
  6 21  1  0
 13  8  1  1
  9 13  1  0
 10 13  2  0
 11 13  1  0
 11 16  1  0
 12 15  2  3
 12 18  1  0
 18 19  1  0
 19 20  1  0
 19 27  2  0
 21 22  1  0
 22 23  1  0
 23 24  1  0
 24 25  1  0
 24 26  2  0
  5 28  1  0
  6 29  1  0
  6 30  1  0
  7 31  1  0
 14 32  1  0
 14 33  1  0
 14 34  1  0
 15 35  1  0
 16 36  1  0
 16 37  1  0
 18 38  1  6
 21 39  1  0
 21 40  1  0
 22 41  1  0
 22 42  1  0
 23 43  1  0
 25 44  1  0
 25 45  1  0
 26 46  1  0
 26 47  1  0
M  CHG  4   8  -1   9  -1  20  -1  26   1
M  END
>  <filename_input>  (24) 
8D5D_5DK_docked.sdf

>  <pdb_id>  (24) 
8D5D_5DK

>  <pose_rank>  (24) 
23

>  <num_atoms_heavy>  (24) 
27

>  <num_torsions>  (24) 
10

>  <pose>  (24) 
[8.004227714109623, -9.897600056016996, 35.123902907967334, 1.687731411399823, 2.895282828659619, 2.038351925049339, -1.5687578810587697, 3.389194012761959, -1.3068821482524926, -6.9027723831948915, -10.79324257313329, -5.909602793594282, 0.736032594504365, -3.8115180227985332, 1.1033214693592022, 0.49642904303970425]

>  <energy>  (24) 
-481.04820836684837

>  <inter_energy>  (24) 
-479.4805678034701

>  <intra_energy>  (24) 
3.4657073323391363

>  <rmsd>  (24) 
8.21604

>  <sdf_rank>  (24) 
0

$$$$

     RDKit          3D

 47 47  0  0  0  0  0  0  0  0999 V2000
    1.8017   -8.8494   33.9669 C   0  0  0  0  0  0  0  0  0  0  0  0
    2.9231   -9.3851   34.5819 C   0  0  0  0  0  0  0  0  0  0  0  0
    3.2823   -8.9128   35.8639 C   0  0  0  0  0  0  0  0  0  0  0  0
    2.4417   -7.9960   36.5483 C   0  0  0  0  0  0  0  0  0  0  0  0
    1.2775   -7.5479   35.9155 C   0  0  0  0  0  0  0  0  0  0  0  0
    6.8845  -10.9322   37.8159 C   0  0  0  0  0  0  0  0  0  0  0  0
    3.5813  -10.2882   33.9744 O   0  0  0  0  0  0  0  0  0  0  0  0
    4.5171   -9.4945   40.6867 O   0  0  0  0  0  0  0  0  0  0  0  0
    4.9147   -7.0151   40.3653 O   0  0  0  0  0  0  0  0  0  0  0  0
    2.5598   -7.9379   40.6014 O   0  0  0  0  0  0  0  0  0  0  0  0
    3.8152   -8.2782   38.5258 O   0  0  0  0  0  0  0  0  0  0  0  0
    5.2209  -10.3613   36.0645 N   0  0  0  0  0  0  0  0  0  0  0  0
    3.9869   -8.1879   40.1315 P   0  0  2  0  0  0  0  0  0  0  0  0
    1.4447   -9.2100   32.5530 C   0  0  0  0  0  0  0  0  0  0  0  0
    4.5414   -9.3741   36.5158 C   0  0  0  0  0  0  0  0  0  0  0  0
    2.7339   -7.5379   37.9492 C   0  0  0  0  0  0  0  0  0  0  0  0
    1.0040   -7.9735   34.6822 N   0  0  0  0  0  0  0  0  0  0  0  0
    6.6258  -10.6667   36.3277 C   0  0  1  0  0  0  0  0  0  0  0  0
    7.5867   -9.5987   35.7422 C   0  0  0  0  0  0  0  0  0  0  0  0
    7.2203   -8.3948   35.7286 O   0  0  0  0  0  0  0  0  0  0  0  0
    6.1037  -12.1683   38.2190 C   0  0  0  0  0  0  0  0  0  0  0  0
    6.3629  -13.3370   37.3111 C   0  0  0  0  0  0  0  0  0  0  0  0
    7.4962  -14.0748   37.8249 N   0  0  0  0  0  0  0  0  0  0  0  0
    7.3746  -15.1669   38.5703 C   0  0  0  0  0  0  0  0  0  0  0  0
    8.4487  -15.7908   38.9961 N   0  0  0  0  0  0  0  0  0  0  0  0
    6.1796  -15.5905   38.9295 N   0  0  0  0  0  0  0  0  0  0  0  0
    8.7078  -10.0137   35.3235 O   0  0  0  0  0  0  0  0  0  0  0  0
    0.5965   -6.8531   36.4289 H   0  0  0  0  0  0  0  0  0  0  0  0
    7.9588  -11.0994   37.9831 H   0  0  0  0  0  0  0  0  0  0  0  0
    6.5655  -10.0682   38.4172 H   0  0  0  0  0  0  0  0  0  0  0  0
    4.3849  -10.6835   34.3963 H   0  0  0  0  0  0  0  0  0  0  0  0
    0.6709   -9.9918   32.5582 H   0  0  0  0  0  0  0  0  0  0  0  0
    1.0626   -8.3193   32.0328 H   0  0  0  0  0  0  0  0  0  0  0  0
    2.3393   -9.5830   32.0328 H   0  0  0  0  0  0  0  0  0  0  0  0
    4.8985   -8.8490   37.4140 H   0  0  0  0  0  0  0  0  0  0  0  0
    3.0014   -6.4711   37.9285 H   0  0  0  0  0  0  0  0  0  0  0  0
    1.8355   -7.7031   38.5620 H   0  0  0  0  0  0  0  0  0  0  0  0
    6.8495  -11.6024   35.7944 H   0  0  0  0  0  0  0  0  0  0  0  0
    6.3905  -12.4476   39.2435 H   0  0  0  0  0  0  0  0  0  0  0  0
    5.0335  -11.9235   38.1498 H   0  0  0  0  0  0  0  0  0  0  0  0
    5.4773  -13.9889   37.2835 H   0  0  0  0  0  0  0  0  0  0  0  0
    6.5747  -12.9825   36.2915 H   0  0  0  0  0  0  0  0  0  0  0  0
    8.4432  -13.7367   37.6018 H   0  0  0  0  0  0  0  0  0  0  0  0
    8.3568  -16.6382   39.5745 H   0  0  0  0  0  0  0  0  0  0  0  0
    9.3831  -15.4329   38.7518 H   0  0  0  0  0  0  0  0  0  0  0  0
    6.0858  -16.4377   39.5078 H   0  0  0  0  0  0  0  0  0  0  0  0
    5.3393  -15.0743   38.6321 H   0  0  0  0  0  0  0  0  0  0  0  0
  1  2  2  0
  1 14  1  0
  1 17  1  0
  2  3  1  0
  2  7  1  0
  3  4  2  0
  3 15  1  0
  4  5  1  0
  4 16  1  0
  5 17  2  0
 18  6  1  0
  6 21  1  0
 13  8  1  1
  9 13  1  0
 10 13  2  0
 11 13  1  0
 11 16  1  0
 12 15  2  3
 12 18  1  0
 18 19  1  0
 19 20  1  0
 19 27  2  0
 21 22  1  0
 22 23  1  0
 23 24  1  0
 24 25  1  0
 24 26  2  0
  5 28  1  0
  6 29  1  0
  6 30  1  0
  7 31  1  0
 14 32  1  0
 14 33  1  0
 14 34  1  0
 15 35  1  0
 16 36  1  0
 16 37  1  0
 18 38  1  6
 21 39  1  0
 21 40  1  0
 22 41  1  0
 22 42  1  0
 23 43  1  0
 25 44  1  0
 25 45  1  0
 26 46  1  0
 26 47  1  0
M  CHG  4   8  -1   9  -1  20  -1  26   1
M  END
>  <filename_input>  (25) 
8D5D_5DK_docked.sdf

>  <pdb_id>  (25) 
8D5D_5DK

>  <pose_rank>  (25) 
24

>  <num_atoms_heavy>  (25) 
27

>  <num_torsions>  (25) 
10

>  <pose>  (25) 
[1.8016755728588907, -8.849381781731728, 33.96687404524811, 2.5561797592002504, -1.2105659691383752, -0.03306427314665473, -0.11969379206377359, 0.33131734573438754, -0.0322325121145609, -1.6825077852734476, -2.338855280681454, -1.3976899172002948, -1.3238725196644932, -1.2072703935023987, 0.42899609493937474, 3.7135930081205024]

>  <energy>  (25) 
-523.6343393520019

>  <inter_energy>  (25) 
-605.8411152270078

>  <intra_energy>  (25) 
81.88286409269261

>  <rmsd>  (25) 
5.78365

>  <sdf_rank>  (25) 
0

$$$$

     RDKit          3D

 47 47  0  0  0  0  0  0  0  0999 V2000
    2.0040   -7.7330   39.0240 C   0  0  0  0  0  0  0  0  0  0  0  0
    3.1990   -8.0800   38.4120 C   0  0  0  0  0  0  0  0  0  0  0  0
    3.2140   -8.2610   37.0110 C   0  0  0  0  0  0  0  0  0  0  0  0
    2.0550   -7.9770   36.2420 C   0  0  0  0  0  0  0  0  0  0  0  0
    0.8970   -7.5510   36.9010 C   0  0  0  0  0  0  0  0  0  0  0  0
    6.9980   -9.5690   35.0370 C   0  0  0  0  0  0  0  0  0  0  0  0
    4.2390   -8.2130   39.1320 O   0  0  0  0  0  0  0  0  0  0  0  0
    0.7200   -9.5920   32.3140 O   0  0  0  0  0  0  0  0  0  0  0  0
    3.0610   -8.6740   32.0210 O   0  0  0  0  0  0  0  0  0  0  0  0
    2.6820  -11.1200   32.5920 O   0  0  0  0  0  0  0  0  0  0  0  0
    2.3550   -9.3910   34.2960 O   0  0  0  0  0  0  0  0  0  0  0  0
    5.5500   -8.9210   36.9460 N   0  0  0  0  0  0  0  0  0  0  0  0
    2.1780   -9.6880   32.7160 P   0  0  2  0  0  0  0  0  0  0  0  0
    1.8910   -7.6580   40.5200 C   0  0  0  0  0  0  0  0  0  0  0  0
    4.4450   -8.7450   36.3230 C   0  0  0  0  0  0  0  0  0  0  0  0
    2.0510   -8.0650   34.7420 C   0  0  0  0  0  0  0  0  0  0  0  0
    0.9070   -7.4480   38.2300 N   0  0  0  0  0  0  0  0  0  0  0  0
    6.6840   -9.7430   36.5280 C   0  0  1  0  0  0  0  0  0  0  0  0
    6.5180  -11.2330   36.9270 C   0  0  0  0  0  0  0  0  0  0  0  0
    5.3710  -11.7490   36.8830 O   0  0  0  0  0  0  0  0  0  0  0  0
    8.4240  -10.0260   34.7970 C   0  0  0  0  0  0  0  0  0  0  0  0
    8.8840   -9.7690   33.3900 C   0  0  0  0  0  0  0  0  0  0  0  0
   10.3120   -9.9920   33.3260 N   0  0  0  0  0  0  0  0  0  0  0  0
   11.0020   -9.9610   32.1920 C   0  0  0  0  0  0  0  0  0  0  0  0
   12.2990  -10.1650   32.2100 N   0  0  0  0  0  0  0  0  0  0  0  0
   10.3780   -9.7830   31.0450 N   0  0  0  0  0  0  0  0  0  0  0  0
    7.5720  -11.8510   37.2610 O   0  0  0  0  0  0  0  0  0  0  0  0
   -0.0102   -7.3042   36.3299 H   0  0  0  0  0  0  0  0  0  0  0  0
    6.3058  -10.1780   34.4371 H   0  0  0  0  0  0  0  0  0  0  0  0
    6.8824   -8.5149   34.7447 H   0  0  0  0  0  0  0  0  0  0  0  0
    5.1019   -8.4603   38.7144 H   0  0  0  0  0  0  0  0  0  0  0  0
    2.7240   -8.2109   40.9788 H   0  0  0  0  0  0  0  0  0  0  0  0
    1.9298   -6.6058   40.8384 H   0  0  0  0  0  0  0  0  0  0  0  0
    0.9365   -8.1024   40.8384 H   0  0  0  0  0  0  0  0  0  0  0  0
    4.4027   -8.9580   35.2446 H   0  0  0  0  0  0  0  0  0  0  0  0
    1.0556   -7.7814   34.3695 H   0  0  0  0  0  0  0  0  0  0  0  0
    2.8219   -7.3835   34.3530 H   0  0  0  0  0  0  0  0  0  0  0  0
    7.5601   -9.3753   37.0823 H   0  0  0  0  0  0  0  0  0  0  0  0
    9.0879   -9.4868   35.4887 H   0  0  0  0  0  0  0  0  0  0  0  0
    8.4585  -11.1124   34.9656 H   0  0  0  0  0  0  0  0  0  0  0  0
    8.3701  -10.4549   32.7005 H   0  0  0  0  0  0  0  0  0  0  0  0
    8.6508   -8.7337   33.1004 H   0  0  0  0  0  0  0  0  0  0  0  0
   10.8178  -10.1841   34.2024 H   0  0  0  0  0  0  0  0  0  0  0  0
   12.8363  -10.1414   31.3315 H   0  0  0  0  0  0  0  0  0  0  0  0
   12.7791  -10.3486   33.1026 H   0  0  0  0  0  0  0  0  0  0  0  0
   10.9137   -9.7590   30.1656 H   0  0  0  0  0  0  0  0  0  0  0  0
    9.3546   -9.6678   31.0279 H   0  0  0  0  0  0  0  0  0  0  0  0
  1  2  2  0
  1 14  1  0
  1 17  1  0
  2  3  1  0
  2  7  1  0
  3  4  2  0
  3 15  1  0
  4  5  1  0
  4 16  1  0
  5 17  2  0
 18  6  1  0
  6 21  1  0
 13  8  1  6
  9 13  1  0
 10 13  2  0
 11 13  1  0
 11 16  1  0
 12 15  2  3
 12 18  1  0
 18 19  1  0
 19 20  1  0
 19 27  2  0
 21 22  1  0
 22 23  1  0
 23 24  1  0
 24 25  1  0
 24 26  2  0
  5 28  1  0
  6 29  1  0
  6 30  1  0
  7 31  1  0
 14 32  1  0
 14 33  1  0
 14 34  1  0
 15 35  1  0
 16 36  1  0
 16 37  1  0
 18 38  1  1
 21 39  1  0
 21 40  1  0
 22 41  1  0
 22 42  1  0
 23 43  1  0
 25 44  1  0
 25 45  1  0
 26 46  1  0
 26 47  1  0
M  CHG  4   8  -1   9  -1  20  -1  26   1
M  END
>  <filename_input>  (26) 
8D5D_5DK_docked.sdf

>  <pdb_id>  (26) 
8D5D_5DK

>  <pose_rank>  (26) 
25

>  <num_atoms_heavy>  (26) 
27

>  <num_torsions>  (26) 
10

>  <pose>  (26) 
[2.004, -7.733, 39.024, 1e-06, 1e-06, 1e-06, 0.0, 0.0, 0.0, 0.0, 0.0, 0.0, 0.0, 0.0, 0.0, 0.0]

>  <energy>  (26) 
-847.1550575728072

>  <inter_energy>  (26) 
-894.8824317041706

>  <intra_energy>  (26) 
43.55352687633625

>  <rmsd>  (26) 
0.0

>  <sdf_rank>  (26) 
0

$$$$
