
     RDKit          3D

 54 56  0  0  0  0  0  0  0  0999 V2000
   34.6813  -20.8964   22.2680 C   0  0  0  0  0  0  0  0  0  0  0  0
   33.9188  -22.1843   21.9776 C   0  0  0  0  0  0  0  0  0  0  0  0
   31.4330  -22.3427   21.7403 C   0  0  0  0  0  0  0  0  0  0  0  0
   32.1591  -21.7165   23.7304 C   0  0  0  0  0  0  0  0  0  0  0  0
   29.0298  -22.2220   22.3131 C   0  0  0  0  0  0  0  0  0  0  0  0
   26.2784  -23.7124   24.0584 O   0  0  0  0  0  0  0  0  0  0  0  0
   26.9217  -24.5812   24.9893 C   0  0  1  0  0  0  0  0  0  0  0  0
   27.2891  -23.8106   26.2578 C   0  0  0  0  0  0  0  0  0  0  0  0
   25.9298  -25.7092   25.2509 C   0  0  1  0  0  0  0  0  0  0  0  0
   27.0638  -21.8820   20.9810 C   0  0  0  0  0  0  0  0  0  0  0  0
   28.4132  -21.6989   21.1685 C   0  0  0  0  0  0  0  0  0  0  0  0
   22.3676  -24.7792   21.0526 C   0  0  0  0  0  0  0  0  0  0  0  0
   23.2994  -25.2684   19.9651 C   0  0  0  0  0  0  0  0  0  0  0  0
   21.0130  -25.0734   20.9592 C   0  0  0  0  0  0  0  0  0  0  0  0
   20.1275  -24.6584   21.9465 C   0  0  0  0  0  0  0  0  0  0  0  0
   21.8412  -23.6686   23.1329 C   0  0  0  0  0  0  0  0  0  0  0  0
   32.5452  -22.0822   22.4579 N   0  0  0  0  0  0  0  0  0  0  0  0
   31.3856  -22.7042   20.5621 O   0  0  0  0  0  0  0  0  0  0  0  0
   30.3848  -22.1084   22.5650 N   0  0  0  0  0  0  0  0  0  0  0  0
   30.8865  -21.7245   23.8032 N   0  0  0  0  0  0  0  0  0  0  0  0
   33.0096  -21.3599   24.9186 C   0  0  0  0  0  0  0  0  0  0  0  0
   32.7426  -20.0670   25.4387 O   0  0  0  0  0  0  0  0  0  0  0  0
   28.2954  -22.8581   23.2137 N   0  0  0  0  0  0  0  0  0  0  0  0
   26.9793  -23.0449   23.0955 C   0  0  0  0  0  0  0  0  0  0  0  0
   25.4937  -26.2143   24.0321 F   0  0  0  0  0  0  0  0  0  0  0  0
   26.5805  -26.7005   25.9462 F   0  0  0  0  0  0  0  0  0  0  0  0
   24.8440  -25.2385   25.9644 F   0  0  0  0  0  0  0  0  0  0  0  0
   26.2869  -22.5472   21.9512 C   0  0  0  0  0  0  0  0  0  0  0  0
   29.0832  -21.0325   20.2209 F   0  0  0  0  0  0  0  0  0  0  0  0
   24.8371  -22.7485   21.6994 C   0  0  0  0  0  0  0  0  0  0  0  0
   24.2932  -22.0992   20.8200 O   0  0  0  0  0  0  0  0  0  0  0  0
   24.1497  -23.7247   22.3692 N   0  0  0  0  0  0  0  0  0  0  0  0
   22.7981  -24.0363   22.1740 C   0  0  0  0  0  0  0  0  0  0  0  0
   20.5570  -23.9790   23.0015 N   0  0  0  0  0  0  0  0  0  0  0  0
   22.3355  -22.7816   24.5167 Cl  0  0  0  0  0  0  0  0  0  0  0  0
   34.7641  -20.7567   23.3560 H   0  0  0  0  0  0  0  0  0  0  0  0
   35.6879  -20.9593   21.8288 H   0  0  0  0  0  0  0  0  0  0  0  0
   34.1422  -20.0441   21.8288 H   0  0  0  0  0  0  0  0  0  0  0  0
   33.9108  -22.3637   20.8924 H   0  0  0  0  0  0  0  0  0  0  0  0
   34.4164  -23.0176   22.4953 H   0  0  0  0  0  0  0  0  0  0  0  0
   27.8678  -24.9912   24.6063 H   0  0  0  0  0  0  0  0  0  0  0  0
   27.0069  -24.4024   27.1410 H   0  0  0  0  0  0  0  0  0  0  0  0
   28.3731  -23.6240   26.2725 H   0  0  0  0  0  0  0  0  0  0  0  0
   26.7516  -22.8509   26.2725 H   0  0  0  0  0  0  0  0  0  0  0  0
   26.5854  -21.5057   20.0647 H   0  0  0  0  0  0  0  0  0  0  0  0
   24.1849  -25.7334   20.4229 H   0  0  0  0  0  0  0  0  0  0  0  0
   22.7777  -26.0090   19.3410 H   0  0  0  0  0  0  0  0  0  0  0  0
   23.6128  -24.4186   19.3410 H   0  0  0  0  0  0  0  0  0  0  0  0
   20.6375  -25.6406   20.0948 H   0  0  0  0  0  0  0  0  0  0  0  0
   19.0577  -24.8963   21.8520 H   0  0  0  0  0  0  0  0  0  0  0  0
   32.8263  -22.0991   25.7124 H   0  0  0  0  0  0  0  0  0  0  0  0
   34.0561  -21.3624   24.5797 H   0  0  0  0  0  0  0  0  0  0  0  0
   32.7496  -20.1014   26.4281 H   0  0  0  0  0  0  0  0  0  0  0  0
   24.6667  -24.2727   23.0715 H   0  0  0  0  0  0  0  0  0  0  0  0
  1  2  1  0
  2 17  1  0
  3 17  1  0
  3 18  2  0
  3 19  1  0
  4 17  1  0
  4 20  2  0
  4 21  1  0
  5 11  1  0
  5 19  1  0
  5 23  2  0
  6  7  1  0
  6 24  1  0
  7  8  1  0
  7  9  1  0
  9 25  1  6
  9 26  1  0
  9 27  1  0
 10 11  2  0
 10 28  1  0
 11 29  1  0
 12 13  1  0
 12 14  2  0
 12 33  1  0
 14 15  1  0
 15 34  2  0
 16 33  2  0
 16 34  1  0
 16 35  1  0
 19 20  1  0
 21 22  1  0
 23 24  1  0
 24 28  2  0
 28 30  1  0
 30 31  2  0
 30 32  1  0
 32 33  1  0
  1 36  1  0
  1 37  1  0
  1 38  1  0
  2 39  1  0
  2 40  1  0
  7 41  1  6
  8 42  1  0
  8 43  1  0
  8 44  1  0
 10 45  1  0
 13 46  1  0
 13 47  1  0
 13 48  1  0
 14 49  1  0
 15 50  1  0
 21 51  1  0
 21 52  1  0
 22 53  1  0
 32 54  1  0
M  END
>  <filename_input>  (1) 
8DHG_T78_docked.sdf

>  <pdb_id>  (1) 
8DHG_T78

>  <pose_rank>  (1) 
0

>  <num_atoms_heavy>  (1) 
35

>  <num_torsions>  (1) 
7

>  <pose>  (1) 
[31.4329884454703, -22.34271081024688, 21.74031317828635, 6.182059507011416, -0.46880511677650866, -0.33227512410471804, -0.12490232592412524, 0.14518337609168908, 0.5703683849904472, 1.1539008038596668, 12.447609220103411, 18.7478772583184, -0.13996017244961825]

>  <energy>  (1) 
-1412.942065781484

>  <inter_energy>  (1) 
-1425.5213735748973

>  <intra_energy>  (1) 
41.82591095844661

>  <rmsd>  (1) 
0.386476

>  <sdf_rank>  (1) 
0

$$$$

     RDKit          3D

 54 56  0  0  0  0  0  0  0  0999 V2000
   33.0016  -22.2399   23.7506 C   0  0  0  0  0  0  0  0  0  0  0  0
   31.8167  -21.3167   24.0113 C   0  0  0  0  0  0  0  0  0  0  0  0
   29.4499  -22.1278   24.0456 C   0  0  0  0  0  0  0  0  0  0  0  0
   30.4399  -22.1701   22.0712 C   0  0  0  0  0  0  0  0  0  0  0  0
   27.2986  -23.0577   23.2550 C   0  0  0  0  0  0  0  0  0  0  0  0
   24.2606  -22.4823   21.4447 O   0  0  0  0  0  0  0  0  0  0  0  0
   24.4744  -22.7019   20.0514 C   0  0  1  0  0  0  0  0  0  0  0  0
   23.2014  -23.2504   19.4060 C   0  0  0  0  0  0  0  0  0  0  0  0
   24.8891  -21.3498   19.4817 C   0  0  1  0  0  0  0  0  0  0  0  0
   25.5571  -24.2778   24.3658 C   0  0  0  0  0  0  0  0  0  0  0  0
   26.8812  -23.9189   24.2786 C   0  0  0  0  0  0  0  0  0  0  0  0
   20.2901  -25.0309   22.0884 C   0  0  0  0  0  0  0  0  0  0  0  0
   21.0649  -25.9714   21.1910 C   0  0  0  0  0  0  0  0  0  0  0  0
   18.9249  -25.2300   22.2514 C   0  0  0  0  0  0  0  0  0  0  0  0
   18.1813  -24.3999   23.0815 C   0  0  0  0  0  0  0  0  0  0  0  0
   20.0601  -23.1705   23.6129 C   0  0  0  0  0  0  0  0  0  0  0  0
   30.6058  -21.8584   23.4045 N   0  0  0  0  0  0  0  0  0  0  0  0
   29.2207  -21.9690   25.2470 O   0  0  0  0  0  0  0  0  0  0  0  0
   28.6041  -22.6244   23.1120 N   0  0  0  0  0  0  0  0  0  0  0  0
   29.2640  -22.6269   21.8886 N   0  0  0  0  0  0  0  0  0  0  0  0
   31.4097  -22.0241   20.9308 C   0  0  0  0  0  0  0  0  0  0  0  0
   32.6810  -21.5345   21.3276 O   0  0  0  0  0  0  0  0  0  0  0  0
   26.4147  -22.6278   22.3666 N   0  0  0  0  0  0  0  0  0  0  0  0
   25.1229  -22.9617   22.3885 C   0  0  0  0  0  0  0  0  0  0  0  0
   25.1289  -21.4914   18.1203 F   0  0  0  0  0  0  0  0  0  0  0  0
   23.8516  -20.4679   19.6704 F   0  0  0  0  0  0  0  0  0  0  0  0
   26.0381  -20.8987   20.1029 F   0  0  0  0  0  0  0  0  0  0  0  0
   24.6258  -23.8278   23.4079 C   0  0  0  0  0  0  0  0  0  0  0  0
   27.7152  -24.4068   25.2047 F   0  0  0  0  0  0  0  0  0  0  0  0
   23.1994  -24.2158   23.5519 C   0  0  0  0  0  0  0  0  0  0  0  0
   22.8702  -24.9233   24.4909 O   0  0  0  0  0  0  0  0  0  0  0  0
   22.2550  -23.6976   22.7072 N   0  0  0  0  0  0  0  0  0  0  0  0
   20.8797  -23.9520   22.7835 C   0  0  0  0  0  0  0  0  0  0  0  0
   18.7595  -23.4047   23.7405 N   0  0  0  0  0  0  0  0  0  0  0  0
   20.7499  -21.8635   24.4859 Cl  0  0  0  0  0  0  0  0  0  0  0  0
   33.4265  -22.5709   24.7097 H   0  0  0  0  0  0  0  0  0  0  0  0
   32.6647  -23.1159   23.1770 H   0  0  0  0  0  0  0  0  0  0  0  0
   33.7686  -21.6989   23.1770 H   0  0  0  0  0  0  0  0  0  0  0  0
   31.6655  -21.2189   25.0965 H   0  0  0  0  0  0  0  0  0  0  0  0
   32.0277  -20.3322   23.5684 H   0  0  0  0  0  0  0  0  0  0  0  0
   25.2548  -23.4512   19.8526 H   0  0  0  0  0  0  0  0  0  0  0  0
   22.4941  -23.5552   20.1913 H   0  0  0  0  0  0  0  0  0  0  0  0
   22.7417  -22.4705   18.7811 H   0  0  0  0  0  0  0  0  0  0  0  0
   23.4525  -24.1202   18.7811 H   0  0  0  0  0  0  0  0  0  0  0  0
   25.2209  -24.9226   25.1912 H   0  0  0  0  0  0  0  0  0  0  0  0
   21.6436  -26.6740   21.8086 H   0  0  0  0  0  0  0  0  0  0  0  0
   20.3639  -26.5330   20.5560 H   0  0  0  0  0  0  0  0  0  0  0  0
   21.7503  -25.3909   20.5560 H   0  0  0  0  0  0  0  0  0  0  0  0
   18.4273  -26.0533   21.7178 H   0  0  0  0  0  0  0  0  0  0  0  0
   17.1003  -24.5702   23.1933 H   0  0  0  0  0  0  0  0  0  0  0  0
   31.5471  -23.0099   20.4624 H   0  0  0  0  0  0  0  0  0  0  0  0
   30.9821  -21.2873   20.2349 H   0  0  0  0  0  0  0  0  0  0  0  0
   32.7331  -21.5144   22.3161 H   0  0  0  0  0  0  0  0  0  0  0  0
   22.5811  -23.0717   21.9570 H   0  0  0  0  0  0  0  0  0  0  0  0
  1  2  1  0
  2 17  1  0
  3 17  1  0
  3 18  2  0
  3 19  1  0
  4 17  1  0
  4 20  2  0
  4 21  1  0
  5 11  1  0
  5 19  1  0
  5 23  2  0
  6  7  1  0
  6 24  1  0
  7  8  1  0
  7  9  1  0
  9 25  1  6
  9 26  1  0
  9 27  1  0
 10 11  2  0
 10 28  1  0
 11 29  1  0
 12 13  1  0
 12 14  2  0
 12 33  1  0
 14 15  1  0
 15 34  2  0
 16 33  2  0
 16 34  1  0
 16 35  1  0
 19 20  1  0
 21 22  1  0
 23 24  1  0
 24 28  2  0
 28 30  1  0
 30 31  2  0
 30 32  1  0
 32 33  1  0
  1 36  1  0
  1 37  1  0
  1 38  1  0
  2 39  1  0
  2 40  1  0
  7 41  1  1
  8 42  1  0
  8 43  1  0
  8 44  1  0
 10 45  1  0
 13 46  1  0
 13 47  1  0
 13 48  1  0
 14 49  1  0
 15 50  1  0
 21 51  1  0
 21 52  1  0
 22 53  1  0
 32 54  1  0
M  END
>  <filename_input>  (2) 
8DHG_T78_docked.sdf

>  <pdb_id>  (2) 
8DHG_T78

>  <pose_rank>  (2) 
1

>  <num_atoms_heavy>  (2) 
35

>  <num_torsions>  (2) 
7

>  <pose>  (2) 
[29.449923980054564, -22.127844216960806, 24.045609528056957, -3.032604740919298, -0.5834840467285429, -0.1313601785408987, 0.1386923555036101, -2.7679379811284925, 0.48789863841238734, -0.9414465037473573, 1.2311363126446864, 0.5491022368100492, 2.1089739205549933]

>  <energy>  (2) 
-725.2912942648452

>  <inter_energy>  (2) 
-825.4716492776213

>  <intra_energy>  (2) 
94.04599639226063

>  <rmsd>  (2) 
4.16284

>  <sdf_rank>  (2) 
0

$$$$

     RDKit          3D

 54 56  0  0  0  0  0  0  0  0999 V2000
   34.1578  -20.0704   23.8469 C   0  0  0  0  0  0  0  0  0  0  0  0
   33.7580  -21.4836   24.2561 C   0  0  0  0  0  0  0  0  0  0  0  0
   31.2989  -21.9063   24.0695 C   0  0  0  0  0  0  0  0  0  0  0  0
   32.4747  -22.3196   22.2456 C   0  0  0  0  0  0  0  0  0  0  0  0
   29.1198  -22.5700   23.1055 C   0  0  0  0  0  0  0  0  0  0  0  0
   26.4348  -21.7299   20.8869 O   0  0  0  0  0  0  0  0  0  0  0  0
   25.1464  -22.2099   20.5063 C   0  0  1  0  0  0  0  0  0  0  0  0
   24.1587  -21.0461   20.4177 C   0  0  0  0  0  0  0  0  0  0  0  0
   25.3495  -22.9143   19.1694 C   0  0  1  0  0  0  0  0  0  0  0  0
   27.0887  -23.3734   24.0977 C   0  0  0  0  0  0  0  0  0  0  0  0
   28.4558  -23.2375   24.1435 C   0  0  0  0  0  0  0  0  0  0  0  0
   22.0928  -24.3443   23.9368 C   0  0  0  0  0  0  0  0  0  0  0  0
   22.6035  -23.9196   25.2965 C   0  0  0  0  0  0  0  0  0  0  0  0
   20.7329  -24.5759   23.7722 C   0  0  0  0  0  0  0  0  0  0  0  0
   20.2217  -24.9491   22.5350 C   0  0  0  0  0  0  0  0  0  0  0  0
   22.3267  -24.8810   21.5925 C   0  0  0  0  0  0  0  0  0  0  0  0
   32.5459  -21.8930   23.5552 N   0  0  0  0  0  0  0  0  0  0  0  0
   30.9715  -21.5824   25.2137 O   0  0  0  0  0  0  0  0  0  0  0  0
   30.4873  -22.3644   23.0872 N   0  0  0  0  0  0  0  0  0  0  0  0
   31.2654  -22.6044   21.9605 N   0  0  0  0  0  0  0  0  0  0  0  0
   33.5724  -22.4533   21.2261 C   0  0  0  0  0  0  0  0  0  0  0  0
   34.8551  -22.6553   21.7981 O   0  0  0  0  0  0  0  0  0  0  0  0
   28.4218  -22.1077   22.0788 N   0  0  0  0  0  0  0  0  0  0  0  0
   27.0975  -22.2313   21.9702 C   0  0  0  0  0  0  0  0  0  0  0  0
   26.7042  -22.9079   18.8605 F   0  0  0  0  0  0  0  0  0  0  0  0
   24.9197  -24.2136   19.2990 F   0  0  0  0  0  0  0  0  0  0  0  0
   24.6509  -22.2618   18.1715 F   0  0  0  0  0  0  0  0  0  0  0  0
   26.3550  -22.8916   22.9945 C   0  0  0  0  0  0  0  0  0  0  0  0
   29.0912  -23.7449   25.2065 F   0  0  0  0  0  0  0  0  0  0  0  0
   24.8766  -23.0339   22.9948 C   0  0  0  0  0  0  0  0  0  0  0  0
   24.1850  -22.0278   23.0070 O   0  0  0  0  0  0  0  0  0  0  0  0
   24.3027  -24.2707   22.8726 N   0  0  0  0  0  0  0  0  0  0  0  0
   22.9252  -24.5166   22.8089 C   0  0  0  0  0  0  0  0  0  0  0  0
   21.0193  -25.0855   21.4842 N   0  0  0  0  0  0  0  0  0  0  0  0
   23.3085  -25.0800   20.1988 Cl  0  0  0  0  0  0  0  0  0  0  0  0
   34.3298  -19.4627   24.7476 H   0  0  0  0  0  0  0  0  0  0  0  0
   35.0803  -20.1089   23.2490 H   0  0  0  0  0  0  0  0  0  0  0  0
   33.3519  -19.6199   23.2490 H   0  0  0  0  0  0  0  0  0  0  0  0
   34.5736  -22.1778   24.0052 H   0  0  0  0  0  0  0  0  0  0  0  0
   33.5665  -21.5004   25.3391 H   0  0  0  0  0  0  0  0  0  0  0  0
   24.7177  -22.9083   21.2402 H   0  0  0  0  0  0  0  0  0  0  0  0
   23.8829  -20.7212   21.4319 H   0  0  0  0  0  0  0  0  0  0  0  0
   24.6260  -20.2088   19.8788 H   0  0  0  0  0  0  0  0  0  0  0  0
   23.2565  -21.3711   19.8788 H   0  0  0  0  0  0  0  0  0  0  0  0
   26.5620  -23.8630   24.9300 H   0  0  0  0  0  0  0  0  0  0  0  0
   22.0108  -24.4125   26.0812 H   0  0  0  0  0  0  0  0  0  0  0  0
   23.6598  -24.2093   25.3984 H   0  0  0  0  0  0  0  0  0  0  0  0
   22.5112  -22.8282   25.3984 H   0  0  0  0  0  0  0  0  0  0  0  0
   20.0537  -24.4628   24.6301 H   0  0  0  0  0  0  0  0  0  0  0  0
   19.1428  -25.1334   22.4260 H   0  0  0  0  0  0  0  0  0  0  0  0
   33.3419  -23.3108   20.5768 H   0  0  0  0  0  0  0  0  0  0  0  0
   33.6126  -21.5062   20.6681 H   0  0  0  0  0  0  0  0  0  0  0  0
   34.7817  -22.6437   22.7853 H   0  0  0  0  0  0  0  0  0  0  0  0
   24.9329  -25.0839   22.8237 H   0  0  0  0  0  0  0  0  0  0  0  0
  1  2  1  0
  2 17  1  0
  3 17  1  0
  3 18  2  0
  3 19  1  0
  4 17  1  0
  4 20  2  0
  4 21  1  0
  5 11  1  0
  5 19  1  0
  5 23  2  0
  6  7  1  0
  6 24  1  0
  7  8  1  0
  7  9  1  0
  9 25  1  6
  9 26  1  0
  9 27  1  0
 10 11  2  0
 10 28  1  0
 11 29  1  0
 12 13  1  0
 12 14  2  0
 12 33  1  0
 14 15  1  0
 15 34  2  0
 16 33  2  0
 16 34  1  0
 16 35  1  0
 19 20  1  0
 21 22  1  0
 23 24  1  0
 24 28  2  0
 28 30  1  0
 30 31  2  0
 30 32  1  0
 32 33  1  0
  1 36  1  0
  1 37  1  0
  1 38  1  0
  2 39  1  0
  2 40  1  0
  7 41  1  1
  8 42  1  0
  8 43  1  0
  8 44  1  0
 10 45  1  0
 13 46  1  0
 13 47  1  0
 13 48  1  0
 14 49  1  0
 15 50  1  0
 21 51  1  0
 21 52  1  0
 22 53  1  0
 32 54  1  0
M  END
>  <filename_input>  (3) 
8DHG_T78_docked.sdf

>  <pdb_id>  (3) 
8DHG_T78

>  <pose_rank>  (3) 
2

>  <num_atoms_heavy>  (3) 
35

>  <num_torsions>  (3) 
7

>  <pose>  (3) 
[31.298897695735775, -21.906324889241482, 24.06954446720936, -3.1857780441317023, -0.3580927265155676, -0.2964314280076168, -4.1132278234967705, 3.8613598367673205, 2.8430808103961462, -0.5297060516262319, 9.27693694157649, -5.8170380994941535, 5.327996493570952]

>  <energy>  (3) 
-989.3741831138036

>  <inter_energy>  (3) 
-1181.36563979938

>  <intra_energy>  (3) 
189.31580675591482

>  <rmsd>  (3) 
3.87602

>  <sdf_rank>  (3) 
0

$$$$

     RDKit          3D

 54 56  0  0  0  0  0  0  0  0999 V2000
   32.9885  -22.3614   23.2564 C   0  0  0  0  0  0  0  0  0  0  0  0
   31.8587  -22.1860   24.2649 C   0  0  0  0  0  0  0  0  0  0  0  0
   29.4584  -22.8819   24.3862 C   0  0  0  0  0  0  0  0  0  0  0  0
   30.3519  -22.9011   22.3660 C   0  0  0  0  0  0  0  0  0  0  0  0
   27.2285  -23.6771   23.6695 C   0  0  0  0  0  0  0  0  0  0  0  0
   24.1423  -22.8900   22.0285 O   0  0  0  0  0  0  0  0  0  0  0  0
   24.3971  -22.8749   20.6249 C   0  0  1  0  0  0  0  0  0  0  0  0
   25.8902  -22.6711   20.3656 C   0  0  0  0  0  0  0  0  0  0  0  0
   23.8844  -24.2115   20.1003 C   0  0  1  0  0  0  0  0  0  0  0  0
   25.4816  -24.8503   24.8216 C   0  0  0  0  0  0  0  0  0  0  0  0
   26.8165  -24.5532   24.6827 C   0  0  0  0  0  0  0  0  0  0  0  0
   20.2888  -25.8018   22.6595 C   0  0  0  0  0  0  0  0  0  0  0  0
   20.6480  -24.9690   21.4480 C   0  0  0  0  0  0  0  0  0  0  0  0
   18.9816  -26.2499   22.8032 C   0  0  0  0  0  0  0  0  0  0  0  0
   18.6160  -27.0327   23.8915 C   0  0  0  0  0  0  0  0  0  0  0  0
   20.7676  -26.9655   24.7222 C   0  0  0  0  0  0  0  0  0  0  0  0
   30.5952  -22.6461   23.6993 N   0  0  0  0  0  0  0  0  0  0  0  0
   29.2936  -22.7554   25.6019 O   0  0  0  0  0  0  0  0  0  0  0  0
   28.5461  -23.3029   23.4784 N   0  0  0  0  0  0  0  0  0  0  0  0
   29.1473  -23.2934   22.2251 N   0  0  0  0  0  0  0  0  0  0  0  0
   31.2736  -22.7615   21.1856 C   0  0  0  0  0  0  0  0  0  0  0  0
   32.5316  -22.1928   21.5135 O   0  0  0  0  0  0  0  0  0  0  0  0
   26.3270  -23.1731   22.8399 N   0  0  0  0  0  0  0  0  0  0  0  0
   25.0224  -23.4444   22.9129 C   0  0  0  0  0  0  0  0  0  0  0  0
   23.7078  -25.0764   21.1734 F   0  0  0  0  0  0  0  0  0  0  0  0
   22.6731  -23.9960   19.4871 F   0  0  0  0  0  0  0  0  0  0  0  0
   24.7931  -24.7611   19.2162 F   0  0  0  0  0  0  0  0  0  0  0  0
   24.5304  -24.3214   23.9255 C   0  0  0  0  0  0  0  0  0  0  0  0
   27.6672  -25.1141   25.5504 F   0  0  0  0  0  0  0  0  0  0  0  0
   23.0947  -24.6446   24.1251 C   0  0  0  0  0  0  0  0  0  0  0  0
   22.3790  -23.8349   24.6933 O   0  0  0  0  0  0  0  0  0  0  0  0
   22.5621  -25.7833   23.5830 N   0  0  0  0  0  0  0  0  0  0  0  0
   21.2154  -26.1600   23.6633 C   0  0  0  0  0  0  0  0  0  0  0  0
   19.5075  -27.3740   24.8122 N   0  0  0  0  0  0  0  0  0  0  0  0
   21.8737  -27.4338   25.9483 Cl  0  0  0  0  0  0  0  0  0  0  0  0
   33.9382  -22.5089   23.7916 H   0  0  0  0  0  0  0  0  0  0  0  0
   32.7835  -23.2385   22.6250 H   0  0  0  0  0  0  0  0  0  0  0  0
   33.0591  -21.4635   22.6250 H   0  0  0  0  0  0  0  0  0  0  0  0
   32.0856  -22.7709   25.1685 H   0  0  0  0  0  0  0  0  0  0  0  0
   31.7688  -21.1192   24.5174 H   0  0  0  0  0  0  0  0  0  0  0  0
   23.8901  -22.0465   20.1084 H   0  0  0  0  0  0  0  0  0  0  0  0
   26.4225  -22.5984   21.3254 H   0  0  0  0  0  0  0  0  0  0  0  0
   26.2825  -23.5240   19.7923 H   0  0  0  0  0  0  0  0  0  0  0  0
   26.0396  -21.7442   19.7923 H   0  0  0  0  0  0  0  0  0  0  0  0
   25.1522  -25.5073   25.6401 H   0  0  0  0  0  0  0  0  0  0  0  0
   21.0638  -24.0049   21.7759 H   0  0  0  0  0  0  0  0  0  0  0  0
   21.3953  -25.5041   20.8437 H   0  0  0  0  0  0  0  0  0  0  0  0
   19.7459  -24.7928   20.8437 H   0  0  0  0  0  0  0  0  0  0  0  0
   18.2283  -25.9823   22.0476 H   0  0  0  0  0  0  0  0  0  0  0  0
   17.5747  -27.3733   23.9907 H   0  0  0  0  0  0  0  0  0  0  0  0
   31.4442  -23.7602   20.7571 H   0  0  0  0  0  0  0  0  0  0  0  0
   30.7861  -22.0795   20.4734 H   0  0  0  0  0  0  0  0  0  0  0  0
   32.6276  -22.1494   22.4979 H   0  0  0  0  0  0  0  0  0  0  0  0
   23.2017  -26.4122   23.0766 H   0  0  0  0  0  0  0  0  0  0  0  0
  1  2  1  0
  2 17  1  0
  3 17  1  0
  3 18  2  0
  3 19  1  0
  4 17  1  0
  4 20  2  0
  4 21  1  0
  5 11  1  0
  5 19  1  0
  5 23  2  0
  6  7  1  0
  6 24  1  0
  7  8  1  0
  7  9  1  0
  9 25  1  1
  9 26  1  0
  9 27  1  0
 10 11  2  0
 10 28  1  0
 11 29  1  0
 12 13  1  0
 12 14  2  0
 12 33  1  0
 14 15  1  0
 15 34  2  0
 16 33  2  0
 16 34  1  0
 16 35  1  0
 19 20  1  0
 21 22  1  0
 23 24  1  0
 24 28  2  0
 28 30  1  0
 30 31  2  0
 30 32  1  0
 32 33  1  0
  1 36  1  0
  1 37  1  0
  1 38  1  0
  2 39  1  0
  2 40  1  0
  7 41  1  6
  8 42  1  0
  8 43  1  0
  8 44  1  0
 10 45  1  0
 13 46  1  0
 13 47  1  0
 13 48  1  0
 14 49  1  0
 15 50  1  0
 21 51  1  0
 21 52  1  0
 22 53  1  0
 32 54  1  0
M  END
>  <filename_input>  (4) 
8DHG_T78_docked.sdf

>  <pdb_id>  (4) 
8DHG_T78

>  <pose_rank>  (4) 
3

>  <num_atoms_heavy>  (4) 
35

>  <num_torsions>  (4) 
7

>  <pose>  (4) 
[29.458355956203054, -22.8818922181234, 24.38617027194894, 3.188973109589966, 0.5274899618427592, 0.07470066113730763, -4.415770431362762, 0.41377048472594397, 1.227473241615376, -7.352713572557454, -5.239826191809993, 3.9380456631680034, -1.3025236380329064]

>  <energy>  (4) 
-621.5148721133128

>  <inter_energy>  (4) 
-841.5355984918464

>  <intra_energy>  (4) 
231.59511705174745

>  <rmsd>  (4) 
4.02488

>  <sdf_rank>  (4) 
0

$$$$

     RDKit          3D

 54 56  0  0  0  0  0  0  0  0999 V2000
   23.1418  -27.1965   27.4908 C   0  0  0  0  0  0  0  0  0  0  0  0
   22.5370  -26.9213   26.1187 C   0  0  0  0  0  0  0  0  0  0  0  0
   24.5414  -25.6261   25.3667 C   0  0  0  0  0  0  0  0  0  0  0  0
   22.5870  -24.7162   24.8848 C   0  0  0  0  0  0  0  0  0  0  0  0
   25.9009  -23.8159   24.3702 C   0  0  0  0  0  0  0  0  0  0  0  0
   27.0900  -22.2530   21.3734 O   0  0  0  0  0  0  0  0  0  0  0  0
   25.8979  -21.8760   20.6864 C   0  0  1  0  0  0  0  0  0  0  0  0
   25.5939  -20.3985   20.9366 C   0  0  0  0  0  0  0  0  0  0  0  0
   26.1567  -22.1841   19.2158 C   0  0  1  0  0  0  0  0  0  0  0  0
   28.1323  -23.0453   24.7973 C   0  0  0  0  0  0  0  0  0  0  0  0
   26.9857  -23.6587   25.2432 C   0  0  0  0  0  0  0  0  0  0  0  0
   32.7322  -21.3713   23.8140 C   0  0  0  0  0  0  0  0  0  0  0  0
   32.3159  -21.1459   25.2514 C   0  0  0  0  0  0  0  0  0  0  0  0
   33.9776  -20.9188   23.3964 C   0  0  0  0  0  0  0  0  0  0  0  0
   34.4047  -21.1228   22.0898 C   0  0  0  0  0  0  0  0  0  0  0  0
   32.4355  -22.2050   21.5656 C   0  0  0  0  0  0  0  0  0  0  0  0
   23.2078  -25.7923   25.4836 N   0  0  0  0  0  0  0  0  0  0  0  0
   25.4170  -26.3912   25.7780 O   0  0  0  0  0  0  0  0  0  0  0  0
   24.7230  -24.4459   24.7282 N   0  0  0  0  0  0  0  0  0  0  0  0
   23.4717  -23.9137   24.4396 N   0  0  0  0  0  0  0  0  0  0  0  0
   21.1189  -24.4370   24.7140 C   0  0  0  0  0  0  0  0  0  0  0  0
   20.3126  -25.0010   25.7363 O   0  0  0  0  0  0  0  0  0  0  0  0
   25.9857  -23.3413   23.1362 N   0  0  0  0  0  0  0  0  0  0  0  0
   27.0636  -22.7173   22.6570 C   0  0  0  0  0  0  0  0  0  0  0  0
   27.3516  -21.5852   18.8358 F   0  0  0  0  0  0  0  0  0  0  0  0
   26.2677  -23.5470   19.0757 F   0  0  0  0  0  0  0  0  0  0  0  0
   25.1301  -21.6905   18.4335 F   0  0  0  0  0  0  0  0  0  0  0  0
   28.2090  -22.5300   23.4874 C   0  0  0  0  0  0  0  0  0  0  0  0
   26.9722  -24.0976   26.5075 F   0  0  0  0  0  0  0  0  0  0  0  0
   29.4745  -21.8981   23.0346 C   0  0  0  0  0  0  0  0  0  0  0  0
   29.4449  -20.7560   22.6040 O   0  0  0  0  0  0  0  0  0  0  0  0
   30.6680  -22.5478   23.2009 N   0  0  0  0  0  0  0  0  0  0  0  0
   31.9228  -22.0270   22.8602 C   0  0  0  0  0  0  0  0  0  0  0  0
   33.6361  -21.7590   21.2160 N   0  0  0  0  0  0  0  0  0  0  0  0
   31.4841  -23.0147   20.3886 Cl  0  0  0  0  0  0  0  0  0  0  0  0
   22.4378  -26.8761   28.2729 H   0  0  0  0  0  0  0  0  0  0  0  0
   23.3401  -28.2735   27.5948 H   0  0  0  0  0  0  0  0  0  0  0  0
   24.0841  -26.6385   27.5948 H   0  0  0  0  0  0  0  0  0  0  0  0
   22.6524  -27.8138   25.4862 H   0  0  0  0  0  0  0  0  0  0  0  0
   21.4709  -26.6795   26.2411 H   0  0  0  0  0  0  0  0  0  0  0  0
   25.0117  -22.4252   21.0373 H   0  0  0  0  0  0  0  0  0  0  0  0
   25.5552  -20.2104   22.0198 H   0  0  0  0  0  0  0  0  0  0  0  0
   26.3836  -19.7801   20.4851 H   0  0  0  0  0  0  0  0  0  0  0  0
   24.6241  -20.1421   20.4851 H   0  0  0  0  0  0  0  0  0  0  0  0
   28.9985  -22.9557   25.4694 H   0  0  0  0  0  0  0  0  0  0  0  0
   33.0813  -21.5602   25.9240 H   0  0  0  0  0  0  0  0  0  0  0  0
   32.2095  -20.0670   25.4374 H   0  0  0  0  0  0  0  0  0  0  0  0
   31.3543  -21.6467   25.4374 H   0  0  0  0  0  0  0  0  0  0  0  0
   34.6324  -20.3936   24.1073 H   0  0  0  0  0  0  0  0  0  0  0  0
   35.3919  -20.7522   21.7766 H   0  0  0  0  0  0  0  0  0  0  0  0
   20.9694  -23.3472   24.7141 H   0  0  0  0  0  0  0  0  0  0  0  0
   20.8097  -24.9006   23.7655 H   0  0  0  0  0  0  0  0  0  0  0  0
   20.6761  -24.7467   26.6214 H   0  0  0  0  0  0  0  0  0  0  0  0
   30.6410  -23.4934   23.6082 H   0  0  0  0  0  0  0  0  0  0  0  0
  1  2  1  0
  2 17  1  0
  3 17  1  0
  3 18  2  0
  3 19  1  0
  4 17  1  0
  4 20  2  0
  4 21  1  0
  5 11  1  0
  5 19  1  0
  5 23  2  0
  6  7  1  0
  6 24  1  0
  7  8  1  0
  7  9  1  0
  9 25  1  6
  9 26  1  0
  9 27  1  0
 10 11  2  0
 10 28  1  0
 11 29  1  0
 12 13  1  0
 12 14  2  0
 12 33  1  0
 14 15  1  0
 15 34  2  0
 16 33  2  0
 16 34  1  0
 16 35  1  0
 19 20  1  0
 21 22  1  0
 23 24  1  0
 24 28  2  0
 28 30  1  0
 30 31  2  0
 30 32  1  0
 32 33  1  0
  1 36  1  0
  1 37  1  0
  1 38  1  0
  2 39  1  0
  2 40  1  0
  7 41  1  1
  8 42  1  0
  8 43  1  0
  8 44  1  0
 10 45  1  0
 13 46  1  0
 13 47  1  0
 13 48  1  0
 14 49  1  0
 15 50  1  0
 21 51  1  0
 21 52  1  0
 22 53  1  0
 32 54  1  0
M  END
>  <filename_input>  (5) 
8DHG_T78_docked.sdf

>  <pdb_id>  (5) 
8DHG_T78

>  <pose_rank>  (5) 
4

>  <num_atoms_heavy>  (5) 
35

>  <num_torsions>  (5) 
7

>  <pose>  (5) 
[24.54141447092263, -25.626115371961298, 25.366661255445447, -0.8824887570819606, 3.2984800400397547, 1.50799069897026, 4.258459920329239, 0.4649428257163962, -0.8161719441156894, -0.47377642779924106, 0.7059482527905168, -0.15740487830071487, -1.9316066421429672]

>  <energy>  (5) 
-924.78795110984

>  <inter_energy>  (5) 
-943.017558024247

>  <intra_energy>  (5) 
30.182253215526863

>  <rmsd>  (5) 
9.0293

>  <sdf_rank>  (5) 
0

$$$$

     RDKit          3D

 54 56  0  0  0  0  0  0  0  0999 V2000
   21.0989  -26.4780   23.8478 C   0  0  0  0  0  0  0  0  0  0  0  0
   21.6529  -25.7231   25.0509 C   0  0  0  0  0  0  0  0  0  0  0  0
   24.0598  -25.0902   24.7916 C   0  0  0  0  0  0  0  0  0  0  0  0
   22.6026  -23.6188   24.0225 C   0  0  0  0  0  0  0  0  0  0  0  0
   26.0667  -23.7659   24.2115 C   0  0  0  0  0  0  0  0  0  0  0  0
   28.2467  -22.5922   21.6217 O   0  0  0  0  0  0  0  0  0  0  0  0
   27.6773  -21.4337   21.0142 C   0  0  1  0  0  0  0  0  0  0  0  0
   28.7840  -20.5303   20.4692 C   0  0  0  0  0  0  0  0  0  0  0  0
   26.7510  -21.9564   19.9217 C   0  0  1  0  0  0  0  0  0  0  0  0
   28.2911  -23.7212   25.1089 C   0  0  0  0  0  0  0  0  0  0  0  0
   26.9489  -23.9621   25.2825 C   0  0  0  0  0  0  0  0  0  0  0  0
   32.6698  -21.6880   21.8843 C   0  0  0  0  0  0  0  0  0  0  0  0
   31.9468  -22.2946   20.7013 C   0  0  0  0  0  0  0  0  0  0  0  0
   34.0011  -21.3175   21.7402 C   0  0  0  0  0  0  0  0  0  0  0  0
   34.6947  -20.7399   22.7967 C   0  0  0  0  0  0  0  0  0  0  0  0
   32.8307  -20.8662   24.1508 C   0  0  0  0  0  0  0  0  0  0  0  0
   22.7421  -24.8429   24.6424 N   0  0  0  0  0  0  0  0  0  0  0  0
   24.5671  -26.0929   25.2999 O   0  0  0  0  0  0  0  0  0  0  0  0
   24.7081  -24.0116   24.2918 N   0  0  0  0  0  0  0  0  0  0  0  0
   23.7562  -23.1178   23.8150 N   0  0  0  0  0  0  0  0  0  0  0  0
   21.3495  -22.9016   23.6008 C   0  0  0  0  0  0  0  0  0  0  0  0
   20.4428  -22.6708   24.6675 O   0  0  0  0  0  0  0  0  0  0  0  0
   26.5364  -23.3197   23.0559 N   0  0  0  0  0  0  0  0  0  0  0  0
   27.8244  -23.0472   22.8377 C   0  0  0  0  0  0  0  0  0  0  0  0
   27.4553  -22.0113   18.7252 F   0  0  0  0  0  0  0  0  0  0  0  0
   26.3487  -23.2238   20.2700 F   0  0  0  0  0  0  0  0  0  0  0  0
   25.6629  -21.1178   19.7726 F   0  0  0  0  0  0  0  0  0  0  0  0
   28.7808  -23.2325   23.8806 C   0  0  0  0  0  0  0  0  0  0  0  0
   26.5501  -24.3965   26.4839 F   0  0  0  0  0  0  0  0  0  0  0  0
   30.2408  -23.0102   23.7241 C   0  0  0  0  0  0  0  0  0  0  0  0
   30.9987  -23.9623   23.8229 O   0  0  0  0  0  0  0  0  0  0  0  0
   30.7163  -21.7772   23.3666 N   0  0  0  0  0  0  0  0  0  0  0  0
   32.0637  -21.4680   23.1409 C   0  0  0  0  0  0  0  0  0  0  0  0
   34.0996  -20.5241   23.9622 N   0  0  0  0  0  0  0  0  0  0  0  0
   32.1176  -20.5681   25.6833 Cl  0  0  0  0  0  0  0  0  0  0  0  0
   20.4815  -27.3194   24.1954 H   0  0  0  0  0  0  0  0  0  0  0  0
   20.4837  -25.7983   23.2400 H   0  0  0  0  0  0  0  0  0  0  0  0
   21.9319  -26.8610   23.2400 H   0  0  0  0  0  0  0  0  0  0  0  0
   20.8502  -25.1211   25.5019 H   0  0  0  0  0  0  0  0  0  0  0  0
   22.0370  -26.4499   25.7818 H   0  0  0  0  0  0  0  0  0  0  0  0
   27.1112  -20.8140   21.7252 H   0  0  0  0  0  0  0  0  0  0  0  0
   29.3358  -20.0798   21.3074 H   0  0  0  0  0  0  0  0  0  0  0  0
   29.4742  -21.1262   19.8540 H   0  0  0  0  0  0  0  0  0  0  0  0
   28.3382  -19.7348   19.8540 H   0  0  0  0  0  0  0  0  0  0  0  0
   28.9899  -23.9115   25.9368 H   0  0  0  0  0  0  0  0  0  0  0  0
   31.1506  -22.9626   21.0614 H   0  0  0  0  0  0  0  0  0  0  0  0
   31.5049  -21.4929   20.0913 H   0  0  0  0  0  0  0  0  0  0  0  0
   32.6595  -22.8690   20.0913 H   0  0  0  0  0  0  0  0  0  0  0  0
   34.5112  -21.4831   20.7798 H   0  0  0  0  0  0  0  0  0  0  0  0
   35.7499  -20.4584   22.6649 H   0  0  0  0  0  0  0  0  0  0  0  0
   21.6329  -21.9306   23.1685 H   0  0  0  0  0  0  0  0  0  0  0  0
   20.8359  -23.5481   22.8739 H   0  0  0  0  0  0  0  0  0  0  0  0
   20.9120  -22.7903   25.5311 H   0  0  0  0  0  0  0  0  0  0  0  0
   30.0297  -21.0176   23.2549 H   0  0  0  0  0  0  0  0  0  0  0  0
  1  2  1  0
  2 17  1  0
  3 17  1  0
  3 18  2  0
  3 19  1  0
  4 17  1  0
  4 20  2  0
  4 21  1  0
  5 11  1  0
  5 19  1  0
  5 23  2  0
  6  7  1  0
  6 24  1  0
  7  8  1  0
  7  9  1  0
  9 25  1  6
  9 26  1  0
  9 27  1  0
 10 11  2  0
 10 28  1  0
 11 29  1  0
 12 13  1  0
 12 14  2  0
 12 33  1  0
 14 15  1  0
 15 34  2  0
 16 33  2  0
 16 34  1  0
 16 35  1  0
 19 20  1  0
 21 22  1  0
 23 24  1  0
 24 28  2  0
 28 30  1  0
 30 31  2  0
 30 32  1  0
 32 33  1  0
  1 36  1  0
  1 37  1  0
  1 38  1  0
  2 39  1  0
  2 40  1  0
  7 41  1  1
  8 42  1  0
  8 43  1  0
  8 44  1  0
 10 45  1  0
 13 46  1  0
 13 47  1  0
 13 48  1  0
 14 49  1  0
 15 50  1  0
 21 51  1  0
 21 52  1  0
 22 53  1  0
 32 54  1  0
M  END
>  <filename_input>  (6) 
8DHG_T78_docked.sdf

>  <pdb_id>  (6) 
8DHG_T78

>  <pose_rank>  (6) 
5

>  <num_atoms_heavy>  (6) 
35

>  <num_torsions>  (6) 
7

>  <pose>  (6) 
[24.059757438711138, -25.090237414956785, 24.791625457847505, 0.400054663183383, -2.560956884775063, -1.2211152448179015, 1.228086580325739, 0.2925789840408782, 2.8464735627684297, 0.021110782004803177, 1.1863360380791317, 0.6277092515764959, -2.642828928951869]

>  <energy>  (6) 
-980.8543679997656

>  <inter_energy>  (6) 
-996.0388215017073

>  <intra_energy>  (6) 
27.383503403505525

>  <rmsd>  (6) 
9.00855

>  <sdf_rank>  (6) 
0

$$$$

     RDKit          3D

 54 56  0  0  0  0  0  0  0  0999 V2000
   18.6566  -25.2946   24.7509 C   0  0  0  0  0  0  0  0  0  0  0  0
   19.3668  -24.0210   24.3062 C   0  0  0  0  0  0  0  0  0  0  0  0
   21.7038  -23.3854   23.6776 C   0  0  0  0  0  0  0  0  0  0  0  0
   21.4653  -25.4130   24.5212 C   0  0  0  0  0  0  0  0  0  0  0  0
   24.1452  -23.5599   23.3209 C   0  0  0  0  0  0  0  0  0  0  0  0
   27.4045  -23.5917   24.8087 O   0  0  0  0  0  0  0  0  0  0  0  0
   27.1270  -23.9869   26.1511 C   0  0  1  0  0  0  0  0  0  0  0  0
   26.4303  -22.8496   26.8988 C   0  0  0  0  0  0  0  0  0  0  0  0
   26.2614  -25.2372   26.0403 C   0  0  1  0  0  0  0  0  0  0  0  0
   25.6410  -22.4621   21.8001 C   0  0  0  0  0  0  0  0  0  0  0  0
   24.3773  -22.9126   22.0999 C   0  0  0  0  0  0  0  0  0  0  0  0
   31.1004  -22.5893   21.1531 C   0  0  0  0  0  0  0  0  0  0  0  0
   30.4099  -23.2145   19.9604 C   0  0  0  0  0  0  0  0  0  0  0  0
   32.3961  -22.1107   21.0045 C   0  0  0  0  0  0  0  0  0  0  0  0
   33.0579  -21.5129   22.0703 C   0  0  0  0  0  0  0  0  0  0  0  0
   31.2297  -21.8273   23.4424 C   0  0  0  0  0  0  0  0  0  0  0  0
   20.7990  -24.2592   24.1650 N   0  0  0  0  0  0  0  0  0  0  0  0
   21.4775  -22.2452   23.2655 O   0  0  0  0  0  0  0  0  0  0  0  0
   22.9007  -24.0178   23.7132 N   0  0  0  0  0  0  0  0  0  0  0  0
   22.7050  -25.2829   24.2549 N   0  0  0  0  0  0  0  0  0  0  0  0
   20.9251  -26.6724   25.1415 C   0  0  0  0  0  0  0  0  0  0  0  0
   20.3240  -27.5524   24.2046 O   0  0  0  0  0  0  0  0  0  0  0  0
   25.1558  -23.7563   24.1547 N   0  0  0  0  0  0  0  0  0  0  0  0
   26.4061  -23.3618   23.9062 C   0  0  0  0  0  0  0  0  0  0  0  0
   26.5345  -25.8658   24.8315 F   0  0  0  0  0  0  0  0  0  0  0  0
   26.5905  -26.0804   27.0748 F   0  0  0  0  0  0  0  0  0  0  0  0
   24.9221  -24.9000   26.0868 F   0  0  0  0  0  0  0  0  0  0  0  0
   26.7138  -22.6882   22.6863 C   0  0  0  0  0  0  0  0  0  0  0  0
   23.4128  -22.6894   21.1993 F   0  0  0  0  0  0  0  0  0  0  0  0
   28.0586  -22.1625   22.3387 C   0  0  0  0  0  0  0  0  0  0  0  0
   28.1509  -21.0444   21.8570 O   0  0  0  0  0  0  0  0  0  0  0  0
   29.1820  -22.8779   22.6557 N   0  0  0  0  0  0  0  0  0  0  0  0
   30.4974  -22.4565   22.4234 C   0  0  0  0  0  0  0  0  0  0  0  0
   32.4649  -21.3806   23.2492 N   0  0  0  0  0  0  0  0  0  0  0  0
   30.5180  -21.6336   24.9923 Cl  0  0  0  0  0  0  0  0  0  0  0  0
   18.6332  -25.3368   25.8498 H   0  0  0  0  0  0  0  0  0  0  0  0
   17.6277  -25.2957   24.3618 H   0  0  0  0  0  0  0  0  0  0  0  0
   19.1966  -26.1704   24.3618 H   0  0  0  0  0  0  0  0  0  0  0  0
   18.9564  -23.6963   23.3387 H   0  0  0  0  0  0  0  0  0  0  0  0
   19.2084  -23.2409   25.0654 H   0  0  0  0  0  0  0  0  0  0  0  0
   28.0375  -24.2075   26.7275 H   0  0  0  0  0  0  0  0  0  0  0  0
   26.5282  -23.0093   27.9828 H   0  0  0  0  0  0  0  0  0  0  0  0
   26.8967  -21.8915   26.6258 H   0  0  0  0  0  0  0  0  0  0  0  0
   25.3649  -22.8297   26.6258 H   0  0  0  0  0  0  0  0  0  0  0  0
   25.8168  -21.9198   20.8594 H   0  0  0  0  0  0  0  0  0  0  0  0
   29.6366  -23.9145   20.3098 H   0  0  0  0  0  0  0  0  0  0  0  0
   29.9427  -22.4259   19.3522 H   0  0  0  0  0  0  0  0  0  0  0  0
   31.1483  -23.7575   19.3522 H   0  0  0  0  0  0  0  0  0  0  0  0
   32.9035  -22.2060   20.0332 H   0  0  0  0  0  0  0  0  0  0  0  0
   34.0856  -21.1451   21.9345 H   0  0  0  0  0  0  0  0  0  0  0  0
   21.7544  -27.2015   25.6336 H   0  0  0  0  0  0  0  0  0  0  0  0
   20.1411  -26.3722   25.8523 H   0  0  0  0  0  0  0  0  0  0  0  0
   19.8367  -28.2659   24.6877 H   0  0  0  0  0  0  0  0  0  0  0  0
   29.0495  -23.7978   23.0997 H   0  0  0  0  0  0  0  0  0  0  0  0
  1  2  1  0
  2 17  1  0
  3 17  1  0
  3 18  2  0
  3 19  1  0
  4 17  1  0
  4 20  2  0
  4 21  1  0
  5 11  1  0
  5 19  1  0
  5 23  2  0
  6  7  1  0
  6 24  1  0
  7  8  1  0
  7  9  1  0
  9 25  1  6
  9 26  1  0
  9 27  1  0
 10 11  2  0
 10 28  1  0
 11 29  1  0
 12 13  1  0
 12 14  2  0
 12 33  1  0
 14 15  1  0
 15 34  2  0
 16 33  2  0
 16 34  1  0
 16 35  1  0
 19 20  1  0
 21 22  1  0
 23 24  1  0
 24 28  2  0
 28 30  1  0
 30 31  2  0
 30 32  1  0
 32 33  1  0
  1 36  1  0
  1 37  1  0
  1 38  1  0
  2 39  1  0
  2 40  1  0
  7 41  1  1
  8 42  1  0
  8 43  1  0
  8 44  1  0
 10 45  1  0
 13 46  1  0
 13 47  1  0
 13 48  1  0
 14 49  1  0
 15 50  1  0
 21 51  1  0
 21 52  1  0
 22 53  1  0
 32 54  1  0
M  END
>  <filename_input>  (7) 
8DHG_T78_docked.sdf

>  <pdb_id>  (7) 
8DHG_T78

>  <pose_rank>  (7) 
6

>  <num_atoms_heavy>  (7) 
35

>  <num_torsions>  (7) 
7

>  <pose>  (7) 
[21.703820072302573, -23.385392696218755, 23.677585673638696, -0.44084432519605743, 1.468898861633554, -2.730835073010568, 0.8726010990344015, 3.675345190928067, 1.3622369877870346, 0.4348719014364284, -0.014083658945572092, -2.8808470596318227, -0.5657408440545947]

>  <energy>  (7) 
-672.0110704841151

>  <inter_energy>  (7) 
-846.542933738739

>  <intra_energy>  (7) 
184.6186667740311

>  <rmsd>  (7) 
8.43013

>  <sdf_rank>  (7) 
0

$$$$

     RDKit          3D

 54 56  0  0  0  0  0  0  0  0999 V2000
   19.4566  -24.2456   23.5494 C   0  0  0  0  0  0  0  0  0  0  0  0
   20.4804  -23.3124   22.9127 C   0  0  0  0  0  0  0  0  0  0  0  0
   22.9640  -23.0411   23.0503 C   0  0  0  0  0  0  0  0  0  0  0  0
   22.1827  -24.9928   23.7288 C   0  0  0  0  0  0  0  0  0  0  0  0
   25.3432  -23.5802   23.4585 C   0  0  0  0  0  0  0  0  0  0  0  0
   27.9437  -24.0584   25.8763 O   0  0  0  0  0  0  0  0  0  0  0  0
   27.2113  -24.3775   27.0583 C   0  0  1  0  0  0  0  0  0  0  0  0
   26.5456  -23.1198   27.6178 C   0  0  0  0  0  0  0  0  0  0  0  0
   26.2033  -25.4428   26.6415 C   0  0  1  0  0  0  0  0  0  0  0  0
   27.3787  -22.7475   22.5000 C   0  0  0  0  0  0  0  0  0  0  0  0
   26.0325  -23.0007   22.3848 C   0  0  0  0  0  0  0  0  0  0  0  0
   32.2166  -21.3809   23.8464 C   0  0  0  0  0  0  0  0  0  0  0  0
   31.5474  -21.1407   25.1823 C   0  0  0  0  0  0  0  0  0  0  0  0
   33.5800  -21.1429   23.7254 C   0  0  0  0  0  0  0  0  0  0  0  0
   34.2352  -21.3691   22.5211 C   0  0  0  0  0  0  0  0  0  0  0  0
   32.2703  -22.0600   21.5282 C   0  0  0  0  0  0  0  0  0  0  0  0
   21.8353  -23.7616   23.2135 N   0  0  0  0  0  0  0  0  0  0  0  0
   23.0452  -21.8892   22.6170 O   0  0  0  0  0  0  0  0  0  0  0  0
   23.9854  -23.8416   23.4370 N   0  0  0  0  0  0  0  0  0  0  0  0
   23.4492  -25.0522   23.8604 N   0  0  0  0  0  0  0  0  0  0  0  0
   21.2993  -26.1453   24.1210 C   0  0  0  0  0  0  0  0  0  0  0  0
   20.2006  -26.3405   23.2446 O   0  0  0  0  0  0  0  0  0  0  0  0
   26.0074  -23.9049   24.5578 N   0  0  0  0  0  0  0  0  0  0  0  0
   27.3171  -23.7039   24.7163 C   0  0  0  0  0  0  0  0  0  0  0  0
   25.6441  -26.0023   27.7839 F   0  0  0  0  0  0  0  0  0  0  0  0
   25.2156  -24.8341   25.9042 F   0  0  0  0  0  0  0  0  0  0  0  0
   26.8269  -26.4331   25.9068 F   0  0  0  0  0  0  0  0  0  0  0  0
   28.0809  -23.1095   23.6675 C   0  0  0  0  0  0  0  0  0  0  0  0
   25.4360  -22.6578   21.2368 F   0  0  0  0  0  0  0  0  0  0  0  0
   29.5291  -22.7949   23.7642 C   0  0  0  0  0  0  0  0  0  0  0  0
   30.1626  -23.2097   24.7219 O   0  0  0  0  0  0  0  0  0  0  0  0
   30.1634  -22.1440   22.7403 N   0  0  0  0  0  0  0  0  0  0  0  0
   31.5309  -21.8435   22.7016 C   0  0  0  0  0  0  0  0  0  0  0  0
   33.5751  -21.8230   21.4640 N   0  0  0  0  0  0  0  0  0  0  0  0
   31.4698  -22.6398   20.1249 Cl  0  0  0  0  0  0  0  0  0  0  0  0
   19.5304  -24.1783   24.6448 H   0  0  0  0  0  0  0  0  0  0  0  0
   18.4453  -23.9521   23.2313 H   0  0  0  0  0  0  0  0  0  0  0  0
   19.6554  -25.2797   23.2313 H   0  0  0  0  0  0  0  0  0  0  0  0
   20.3349  -23.3048   21.8224 H   0  0  0  0  0  0  0  0  0  0  0  0
   20.3418  -22.3001   23.3201 H   0  0  0  0  0  0  0  0  0  0  0  0
   27.8520  -24.7592   27.8669 H   0  0  0  0  0  0  0  0  0  0  0  0
   26.5635  -23.1536   28.7172 H   0  0  0  0  0  0  0  0  0  0  0  0
   27.0910  -22.2303   27.2694 H   0  0  0  0  0  0  0  0  0  0  0  0
   25.5034  -23.0707   27.2694 H   0  0  0  0  0  0  0  0  0  0  0  0
   27.9133  -22.2575   21.6729 H   0  0  0  0  0  0  0  0  0  0  0  0
   32.2470  -21.3918   25.9932 H   0  0  0  0  0  0  0  0  0  0  0  0
   31.2579  -20.0825   25.2624 H   0  0  0  0  0  0  0  0  0  0  0  0
   30.6510  -21.7732   25.2624 H   0  0  0  0  0  0  0  0  0  0  0  0
   34.1467  -20.7714   24.5920 H   0  0  0  0  0  0  0  0  0  0  0  0
   35.3142  -21.1694   22.4434 H   0  0  0  0  0  0  0  0  0  0  0  0
   21.9064  -27.0626   24.1279 H   0  0  0  0  0  0  0  0  0  0  0  0
   20.8845  -25.9119   25.1127 H   0  0  0  0  0  0  0  0  0  0  0  0
   19.3775  -26.4867   23.7748 H   0  0  0  0  0  0  0  0  0  0  0  0
   29.5902  -21.8526   21.9356 H   0  0  0  0  0  0  0  0  0  0  0  0
  1  2  1  0
  2 17  1  0
  3 17  1  0
  3 18  2  0
  3 19  1  0
  4 17  1  0
  4 20  2  0
  4 21  1  0
  5 11  1  0
  5 19  1  0
  5 23  2  0
  6  7  1  0
  6 24  1  0
  7  8  1  0
  7  9  1  0
  9 25  1  1
  9 26  1  0
  9 27  1  0
 10 11  2  0
 10 28  1  0
 11 29  1  0
 12 13  1  0
 12 14  2  0
 12 33  1  0
 14 15  1  0
 15 34  2  0
 16 33  2  0
 16 34  1  0
 16 35  1  0
 19 20  1  0
 21 22  1  0
 23 24  1  0
 24 28  2  0
 28 30  1  0
 30 31  2  0
 30 32  1  0
 32 33  1  0
  1 36  1  0
  1 37  1  0
  1 38  1  0
  2 39  1  0
  2 40  1  0
  7 41  1  1
  8 42  1  0
  8 43  1  0
  8 44  1  0
 10 45  1  0
 13 46  1  0
 13 47  1  0
 13 48  1  0
 14 49  1  0
 15 50  1  0
 21 51  1  0
 21 52  1  0
 22 53  1  0
 32 54  1  0
M  END
>  <filename_input>  (8) 
8DHG_T78_docked.sdf

>  <pdb_id>  (8) 
8DHG_T78

>  <pose_rank>  (8) 
7

>  <num_atoms_heavy>  (8) 
35

>  <num_torsions>  (8) 
7

>  <pose>  (8) 
[22.963956407483902, -23.041064255581137, 23.050290977032677, -0.10350790198188065, -1.496501502674553, 2.7903931163516984, -2.8835599534307033, 4.371602697404875, 1.7221345675596362, -0.310953261156168, 6.267573810013896, -2.924988337614458, 1.9063339589153239]

>  <energy>  (8) 
-614.0994991385842

>  <inter_energy>  (8) 
-939.8861406014798

>  <intra_energy>  (8) 
347.79442389506704

>  <rmsd>  (8) 
8.59403

>  <sdf_rank>  (8) 
0

$$$$

     RDKit          3D

 54 56  0  0  0  0  0  0  0  0999 V2000
   18.1738  -26.0015   25.6855 C   0  0  0  0  0  0  0  0  0  0  0  0
   18.8799  -26.4809   24.4222 C   0  0  0  0  0  0  0  0  0  0  0  0
   21.1442  -25.4320   24.2390 C   0  0  0  0  0  0  0  0  0  0  0  0
   19.5305  -24.4077   23.1313 C   0  0  0  0  0  0  0  0  0  0  0  0
   22.9243  -23.8396   23.5961 C   0  0  0  0  0  0  0  0  0  0  0  0
   25.1102  -22.6582   21.0147 O   0  0  0  0  0  0  0  0  0  0  0  0
   24.2178  -22.3452   19.9465 C   0  0  1  0  0  0  0  0  0  0  0  0
   24.5586  -20.9731   19.3640 C   0  0  0  0  0  0  0  0  0  0  0  0
   24.3792  -23.4729   18.9331 C   0  0  1  0  0  0  0  0  0  0  0  0
   24.9976  -23.2244   24.6347 C   0  0  0  0  0  0  0  0  0  0  0  0
   23.7114  -23.6965   24.7467 C   0  0  0  0  0  0  0  0  0  0  0  0
   29.8393  -22.3365   21.6151 C   0  0  0  0  0  0  0  0  0  0  0  0
   29.0612  -22.1088   20.3373 C   0  0  0  0  0  0  0  0  0  0  0  0
   31.1882  -22.0055   21.6484 C   0  0  0  0  0  0  0  0  0  0  0  0
   31.9332  -22.1817   22.8081 C   0  0  0  0  0  0  0  0  0  0  0  0
   30.0874  -22.9995   23.9253 C   0  0  0  0  0  0  0  0  0  0  0  0
   19.8262  -25.4741   23.9544 N   0  0  0  0  0  0  0  0  0  0  0  0
   21.7707  -26.2280   24.9425 O   0  0  0  0  0  0  0  0  0  0  0  0
   21.6327  -24.3335   23.6161 N   0  0  0  0  0  0  0  0  0  0  0  0
   20.5883  -23.7259   22.9289 N   0  0  0  0  0  0  0  0  0  0  0  0
   18.2181  -24.0225   22.5055 C   0  0  0  0  0  0  0  0  0  0  0  0
   18.3112  -22.9031   21.6384 O   0  0  0  0  0  0  0  0  0  0  0  0
   23.4221  -23.4867   22.4202 N   0  0  0  0  0  0  0  0  0  0  0  0
   24.6541  -23.0013   22.2550 C   0  0  0  0  0  0  0  0  0  0  0  0
   23.1750  -24.1584   18.8297 F   0  0  0  0  0  0  0  0  0  0  0  0
   24.6898  -22.9150   17.7158 F   0  0  0  0  0  0  0  0  0  0  0  0
   25.3684  -24.3473   19.3409 F   0  0  0  0  0  0  0  0  0  0  0  0
   25.5146  -22.8373   23.3816 C   0  0  0  0  0  0  0  0  0  0  0  0
   23.2761  -24.0172   25.9710 F   0  0  0  0  0  0  0  0  0  0  0  0
   26.9176  -22.3574   23.2981 C   0  0  0  0  0  0  0  0  0  0  0  0
   27.1876  -21.2417   23.7143 O   0  0  0  0  0  0  0  0  0  0  0  0
   27.9085  -23.1955   22.8624 N   0  0  0  0  0  0  0  0  0  0  0  0
   29.2684  -22.8672   22.7929 C   0  0  0  0  0  0  0  0  0  0  0  0
   31.3716  -22.6630   23.9090 N   0  0  0  0  0  0  0  0  0  0  0  0
   29.4190  -23.6236   25.3779 Cl  0  0  0  0  0  0  0  0  0  0  0  0
   18.7149  -26.3689   26.5699 H   0  0  0  0  0  0  0  0  0  0  0  0
   18.1530  -24.9018   25.6990 H   0  0  0  0  0  0  0  0  0  0  0  0
   17.1440  -26.3879   25.6990 H   0  0  0  0  0  0  0  0  0  0  0  0
   19.4213  -27.4130   24.6413 H   0  0  0  0  0  0  0  0  0  0  0  0
   18.1283  -26.6553   23.6381 H   0  0  0  0  0  0  0  0  0  0  0  0
   23.1695  -22.2774   20.2727 H   0  0  0  0  0  0  0  0  0  0  0  0
   24.7356  -20.2607   20.1832 H   0  0  0  0  0  0  0  0  0  0  0  0
   25.4644  -21.0524   18.7448 H   0  0  0  0  0  0  0  0  0  0  0  0
   23.7211  -20.6193   18.7448 H   0  0  0  0  0  0  0  0  0  0  0  0
   25.6296  -23.1479   25.5317 H   0  0  0  0  0  0  0  0  0  0  0  0
   28.0322  -21.8077   20.5832 H   0  0  0  0  0  0  0  0  0  0  0  0
   29.5451  -21.3146   19.7498 H   0  0  0  0  0  0  0  0  0  0  0  0
   29.0406  -23.0386   19.7498 H   0  0  0  0  0  0  0  0  0  0  0  0
   31.6714  -21.5998   20.7474 H   0  0  0  0  0  0  0  0  0  0  0  0
   33.0013  -21.9189   22.8131 H   0  0  0  0  0  0  0  0  0  0  0  0
   17.8429  -24.8800   21.9278 H   0  0  0  0  0  0  0  0  0  0  0  0
   17.5394  -23.7417   23.3243 H   0  0  0  0  0  0  0  0  0  0  0  0
   18.3801  -22.0744   22.1755 H   0  0  0  0  0  0  0  0  0  0  0  0
   27.6325  -24.1413   22.5622 H   0  0  0  0  0  0  0  0  0  0  0  0
  1  2  1  0
  2 17  1  0
  3 17  1  0
  3 18  2  0
  3 19  1  0
  4 17  1  0
  4 20  2  0
  4 21  1  0
  5 11  1  0
  5 19  1  0
  5 23  2  0
  6  7  1  0
  6 24  1  0
  7  8  1  0
  7  9  1  0
  9 25  1  6
  9 26  1  0
  9 27  1  0
 10 11  2  0
 10 28  1  0
 11 29  1  0
 12 13  1  0
 12 14  2  0
 12 33  1  0
 14 15  1  0
 15 34  2  0
 16 33  2  0
 16 34  1  0
 16 35  1  0
 19 20  1  0
 21 22  1  0
 23 24  1  0
 24 28  2  0
 28 30  1  0
 30 31  2  0
 30 32  1  0
 32 33  1  0
  1 36  1  0
  1 37  1  0
  1 38  1  0
  2 39  1  0
  2 40  1  0
  7 41  1  1
  8 42  1  0
  8 43  1  0
  8 44  1  0
 10 45  1  0
 13 46  1  0
 13 47  1  0
 13 48  1  0
 14 49  1  0
 15 50  1  0
 21 51  1  0
 21 52  1  0
 22 53  1  0
 32 54  1  0
M  END
>  <filename_input>  (9) 
8DHG_T78_docked.sdf

>  <pdb_id>  (9) 
8DHG_T78

>  <pose_rank>  (9) 
8

>  <num_atoms_heavy>  (9) 
35

>  <num_torsions>  (9) 
7

>  <pose>  (9) 
[21.144151417096147, -25.432005742251608, 24.239001262206415, -0.7993455003266383, 3.143758853372771, 1.1432750873169362, -1.1496197721793093, 3.478744185528978, -0.01827071010387, 2.2297778485928736, 0.6199750776271841, 0.476925222312672, 1.0062531236049825]

>  <energy>  (9) 
-761.3604009221307

>  <inter_energy>  (9) 
-765.3703567910693

>  <intra_energy>  (9) 
4.157115621104784

>  <rmsd>  (9) 
9.25695

>  <sdf_rank>  (9) 
0

$$$$

     RDKit          3D

 54 56  0  0  0  0  0  0  0  0999 V2000
   15.8055  -25.6635   25.1414 C   0  0  0  0  0  0  0  0  0  0  0  0
   16.7199  -24.9592   26.1374 C   0  0  0  0  0  0  0  0  0  0  0  0
   18.9212  -24.6083   25.0006 C   0  0  0  0  0  0  0  0  0  0  0  0
   18.8481  -26.2906   26.4305 C   0  0  0  0  0  0  0  0  0  0  0  0
   21.2804  -24.9547   24.3433 C   0  0  0  0  0  0  0  0  0  0  0  0
   24.7307  -24.6485   25.2591 O   0  0  0  0  0  0  0  0  0  0  0  0
   25.3325  -25.8521   25.7327 C   0  0  1  0  0  0  0  0  0  0  0  0
   25.3104  -26.9163   24.6349 C   0  0  0  0  0  0  0  0  0  0  0  0
   26.7469  -25.4664   26.1518 C   0  0  1  0  0  0  0  0  0  0  0  0
   22.5052  -24.3982   22.3570 C   0  0  0  0  0  0  0  0  0  0  0  0
   21.3105  -24.7018   22.9652 C   0  0  0  0  0  0  0  0  0  0  0  0
   28.0926  -22.7754   22.6275 C   0  0  0  0  0  0  0  0  0  0  0  0
   28.3114  -23.6355   23.8532 C   0  0  0  0  0  0  0  0  0  0  0  0
   29.1987  -22.3018   21.9329 C   0  0  0  0  0  0  0  0  0  0  0  0
   29.0401  -21.5247   20.7918 C   0  0  0  0  0  0  0  0  0  0  0  0
   26.7430  -21.6484   20.9702 C   0  0  0  0  0  0  0  0  0  0  0  0
   18.1166  -25.2723   25.8560 N   0  0  0  0  0  0  0  0  0  0  0  0
   18.6158  -23.6329   24.3104 O   0  0  0  0  0  0  0  0  0  0  0  0
   20.1189  -25.2388   25.0381 N   0  0  0  0  0  0  0  0  0  0  0  0
   20.0295  -26.2826   25.9518 N   0  0  0  0  0  0  0  0  0  0  0  0
   18.4304  -27.2952   27.4691 C   0  0  0  0  0  0  0  0  0  0  0  0
   18.3362  -26.7520   28.7767 O   0  0  0  0  0  0  0  0  0  0  0  0
   22.4108  -24.9287   25.0336 N   0  0  0  0  0  0  0  0  0  0  0  0
   23.6012  -24.6631   24.4922 C   0  0  0  0  0  0  0  0  0  0  0  0
   26.7281  -25.0736   27.4845 F   0  0  0  0  0  0  0  0  0  0  0  0
   27.5516  -26.5726   26.0161 F   0  0  0  0  0  0  0  0  0  0  0  0
   27.2103  -24.4220   25.3748 F   0  0  0  0  0  0  0  0  0  0  0  0
   23.7057  -24.3871   23.0960 C   0  0  0  0  0  0  0  0  0  0  0  0
   20.2147  -24.7234   22.1971 F   0  0  0  0  0  0  0  0  0  0  0  0
   24.9721  -24.0281   22.4080 C   0  0  0  0  0  0  0  0  0  0  0  0
   25.3502  -24.7113   21.4694 O   0  0  0  0  0  0  0  0  0  0  0  0
   25.6445  -22.8864   22.7524 N   0  0  0  0  0  0  0  0  0  0  0  0
   26.8152  -22.4247   22.1375 C   0  0  0  0  0  0  0  0  0  0  0  0
   27.8306  -21.2243   20.3379 N   0  0  0  0  0  0  0  0  0  0  0  0
   25.2052  -21.2212   20.3385 Cl  0  0  0  0  0  0  0  0  0  0  0  0
   15.0487  -26.2462   25.6869 H   0  0  0  0  0  0  0  0  0  0  0  0
   15.3059  -24.9145   24.5092 H   0  0  0  0  0  0  0  0  0  0  0  0
   16.4019  -26.3377   24.5092 H   0  0  0  0  0  0  0  0  0  0  0  0
   16.5698  -23.8722   26.0612 H   0  0  0  0  0  0  0  0  0  0  0  0
   16.4747  -25.3048   27.1525 H   0  0  0  0  0  0  0  0  0  0  0  0
   24.7928  -26.2924   26.5841 H   0  0  0  0  0  0  0  0  0  0  0  0
   25.2896  -27.9159   25.0936 H   0  0  0  0  0  0  0  0  0  0  0  0
   24.4149  -26.7806   24.0107 H   0  0  0  0  0  0  0  0  0  0  0  0
   26.2108  -26.8179   24.0107 H   0  0  0  0  0  0  0  0  0  0  0  0
   22.5248  -24.1617   21.2829 H   0  0  0  0  0  0  0  0  0  0  0  0
   28.1573  -23.0298   24.7584 H   0  0  0  0  0  0  0  0  0  0  0  0
   27.5976  -24.4724   23.8461 H   0  0  0  0  0  0  0  0  0  0  0  0
   29.3384  -24.0295   23.8461 H   0  0  0  0  0  0  0  0  0  0  0  0
   30.2105  -22.5444   22.2899 H   0  0  0  0  0  0  0  0  0  0  0  0
   29.9281  -21.1545   20.2586 H   0  0  0  0  0  0  0  0  0  0  0  0
   17.4462  -27.6980   27.1878 H   0  0  0  0  0  0  0  0  0  0  0  0
   19.2073  -28.0733   27.4974 H   0  0  0  0  0  0  0  0  0  0  0  0
   18.4612  -27.4732   29.4433 H   0  0  0  0  0  0  0  0  0  0  0  0
   25.2594  -22.3230   23.5238 H   0  0  0  0  0  0  0  0  0  0  0  0
  1  2  1  0
  2 17  1  0
  3 17  1  0
  3 18  2  0
  3 19  1  0
  4 17  1  0
  4 20  2  0
  4 21  1  0
  5 11  1  0
  5 19  1  0
  5 23  2  0
  6  7  1  0
  6 24  1  0
  7  8  1  0
  7  9  1  0
  9 25  1  1
  9 26  1  0
  9 27  1  0
 10 11  2  0
 10 28  1  0
 11 29  1  0
 12 13  1  0
 12 14  2  0
 12 33  1  0
 14 15  1  0
 15 34  2  0
 16 33  2  0
 16 34  1  0
 16 35  1  0
 19 20  1  0
 21 22  1  0
 23 24  1  0
 24 28  2  0
 28 30  1  0
 30 31  2  0
 30 32  1  0
 32 33  1  0
  1 36  1  0
  1 37  1  0
  1 38  1  0
  2 39  1  0
  2 40  1  0
  7 41  1  1
  8 42  1  0
  8 43  1  0
  8 44  1  0
 10 45  1  0
 13 46  1  0
 13 47  1  0
 13 48  1  0
 14 49  1  0
 15 50  1  0
 21 51  1  0
 21 52  1  0
 22 53  1  0
 32 54  1  0
M  END
>  <filename_input>  (10) 
8DHG_T78_docked.sdf

>  <pdb_id>  (10) 
8DHG_T78

>  <pose_rank>  (10) 
9

>  <num_atoms_heavy>  (10) 
35

>  <num_torsions>  (10) 
7

>  <pose>  (10) 
[18.921151170241494, -24.608318164144713, 25.000647161241865, -0.6701638776675256, 1.0856007503724778, -2.993363422085593, -0.9041646329142076, -2.7994152872636064, -0.14632660124433666, -2.2859252726816863, 1.5264228758992446, 5.281925372840645, -5.748450722944526]

>  <energy>  (10) 
-572.4252789033198

>  <inter_energy>  (10) 
-648.8505010341329

>  <intra_energy>  (10) 
75.49668356232728

>  <rmsd>  (10) 
9.28327

>  <sdf_rank>  (10) 
0

$$$$

     RDKit          3D

 54 56  0  0  0  0  0  0  0  0999 V2000
   23.7546  -22.3678   12.9417 C   0  0  0  0  0  0  0  0  0  0  0  0
   25.1517  -22.5982   13.5067 C   0  0  0  0  0  0  0  0  0  0  0  0
   25.1058  -22.9000   15.9902 C   0  0  0  0  0  0  0  0  0  0  0  0
   25.4465  -20.8324   15.2908 C   0  0  0  0  0  0  0  0  0  0  0  0
   25.1697  -22.3511   18.4011 C   0  0  0  0  0  0  0  0  0  0  0  0
   27.1839  -21.4643   21.2284 O   0  0  0  0  0  0  0  0  0  0  0  0
   28.5511  -21.8270   21.0429 C   0  0  1  0  0  0  0  0  0  0  0  0
   29.3317  -20.6482   20.4606 C   0  0  0  0  0  0  0  0  0  0  0  0
   29.0551  -22.2457   22.4197 C   0  0  1  0  0  0  0  0  0  0  0  0
   24.2112  -23.4110   20.3281 C   0  0  0  0  0  0  0  0  0  0  0  0
   24.1750  -23.1517   18.9786 C   0  0  0  0  0  0  0  0  0  0  0  0
   26.9164  -24.6595   25.1544 C   0  0  0  0  0  0  0  0  0  0  0  0
   28.2193  -24.0780   24.6496 C   0  0  0  0  0  0  0  0  0  0  0  0
   26.8366  -25.0825   26.4753 C   0  0  0  0  0  0  0  0  0  0  0  0
   25.6528  -25.6046   26.9824 C   0  0  0  0  0  0  0  0  0  0  0  0
   24.6011  -25.3189   24.9486 C   0  0  0  0  0  0  0  0  0  0  0  0
   25.2260  -22.1327   14.8872 N   0  0  0  0  0  0  0  0  0  0  0  0
   24.9086  -24.1171   16.0217 O   0  0  0  0  0  0  0  0  0  0  0  0
   25.2243  -22.0646   17.0493 N   0  0  0  0  0  0  0  0  0  0  0  0
   25.4430  -20.7804   16.5644 N   0  0  0  0  0  0  0  0  0  0  0  0
   25.6794  -19.6025   14.4569 C   0  0  0  0  0  0  0  0  0  0  0  0
   25.1903  -19.7170   13.1298 O   0  0  0  0  0  0  0  0  0  0  0  0
   26.1128  -21.8295   19.1716 N   0  0  0  0  0  0  0  0  0  0  0  0
   26.1840  -22.0282   20.4892 C   0  0  0  0  0  0  0  0  0  0  0  0
   28.3461  -21.5460   23.3885 F   0  0  0  0  0  0  0  0  0  0  0  0
   28.8224  -23.5920   22.5710 F   0  0  0  0  0  0  0  0  0  0  0  0
   30.4015  -21.9615   22.5454 F   0  0  0  0  0  0  0  0  0  0  0  0
   25.2097  -22.8402   21.1433 C   0  0  0  0  0  0  0  0  0  0  0  0
   23.1817  -23.7025   18.2707 F   0  0  0  0  0  0  0  0  0  0  0  0
   25.2305  -23.1661   22.5921 C   0  0  0  0  0  0  0  0  0  0  0  0
   24.7022  -22.3971   23.3796 O   0  0  0  0  0  0  0  0  0  0  0  0
   25.7377  -24.3625   23.0228 N   0  0  0  0  0  0  0  0  0  0  0  0
   25.7601  -24.7951   24.3548 C   0  0  0  0  0  0  0  0  0  0  0  0
   24.5729  -25.7042   26.2188 N   0  0  0  0  0  0  0  0  0  0  0  0
   23.1738  -25.4790   24.0088 Cl  0  0  0  0  0  0  0  0  0  0  0  0
   23.0393  -22.2498   13.7690 H   0  0  0  0  0  0  0  0  0  0  0  0
   23.7543  -21.4574   12.3242 H   0  0  0  0  0  0  0  0  0  0  0  0
   23.4620  -23.2298   12.3242 H   0  0  0  0  0  0  0  0  0  0  0  0
   25.3830  -23.6731   13.4739 H   0  0  0  0  0  0  0  0  0  0  0  0
   25.8782  -22.0362   12.9014 H   0  0  0  0  0  0  0  0  0  0  0  0
   28.6800  -22.6517   20.3264 H   0  0  0  0  0  0  0  0  0  0  0  0
   29.7369  -20.0362   21.2799 H   0  0  0  0  0  0  0  0  0  0  0  0
   30.1587  -21.0260   19.8415 H   0  0  0  0  0  0  0  0  0  0  0  0
   28.6610  -20.0343   19.8415 H   0  0  0  0  0  0  0  0  0  0  0  0
   23.4535  -24.0705   20.7763 H   0  0  0  0  0  0  0  0  0  0  0  0
   28.8508  -23.7961   25.5051 H   0  0  0  0  0  0  0  0  0  0  0  0
   28.7431  -24.8277   24.0385 H   0  0  0  0  0  0  0  0  0  0  0  0
   28.0109  -23.1874   24.0385 H   0  0  0  0  0  0  0  0  0  0  0  0
   27.7196  -25.0033   27.1265 H   0  0  0  0  0  0  0  0  0  0  0  0
   25.6109  -25.9393   28.0294 H   0  0  0  0  0  0  0  0  0  0  0  0
   25.1758  -18.7530   14.9414 H   0  0  0  0  0  0  0  0  0  0  0  0
   26.7679  -19.4590   14.3892 H   0  0  0  0  0  0  0  0  0  0  0  0
   24.2266  -19.9427   13.1516 H   0  0  0  0  0  0  0  0  0  0  0  0
   26.1337  -24.9939   22.3118 H   0  0  0  0  0  0  0  0  0  0  0  0
  1  2  1  0
  2 17  1  0
  3 17  1  0
  3 18  2  0
  3 19  1  0
  4 17  1  0
  4 20  2  0
  4 21  1  0
  5 11  1  0
  5 19  1  0
  5 23  2  0
  6  7  1  0
  6 24  1  0
  7  8  1  0
  7  9  1  0
  9 25  1  1
  9 26  1  0
  9 27  1  0
 10 11  2  0
 10 28  1  0
 11 29  1  0
 12 13  1  0
 12 14  2  0
 12 33  1  0
 14 15  1  0
 15 34  2  0
 16 33  2  0
 16 34  1  0
 16 35  1  0
 19 20  1  0
 21 22  1  0
 23 24  1  0
 24 28  2  0
 28 30  1  0
 30 31  2  0
 30 32  1  0
 32 33  1  0
  1 36  1  0
  1 37  1  0
  1 38  1  0
  2 39  1  0
  2 40  1  0
  7 41  1  6
  8 42  1  0
  8 43  1  0
  8 44  1  0
 10 45  1  0
 13 46  1  0
 13 47  1  0
 13 48  1  0
 14 49  1  0
 15 50  1  0
 21 51  1  0
 21 52  1  0
 22 53  1  0
 32 54  1  0
M  END
>  <filename_input>  (11) 
8DHG_T78_docked.sdf

>  <pdb_id>  (11) 
8DHG_T78

>  <pose_rank>  (11) 
10

>  <num_atoms_heavy>  (11) 
35

>  <num_torsions>  (11) 
7

>  <pose>  (11) 
[25.10576994569671, -22.899994672198353, 15.9901623233743, -0.9289396529181699, 1.3406683911380919, 0.9091597802847399, -1.5356764481891594, 3.378659875612112, 0.03413814973101802, -0.5970805976387129, -0.9064915210992219, 0.24722471681358885, -1.5345403436374978]

>  <energy>  (11) 
-490.34674752458415

>  <inter_energy>  (11) 
-597.6996444913275

>  <intra_energy>  (11) 
100.82641159000099

>  <rmsd>  (11) 
7.36749

>  <sdf_rank>  (11) 
0

$$$$

     RDKit          3D

 54 56  0  0  0  0  0  0  0  0999 V2000
   19.9630  -28.4580   31.8043 C   0  0  0  0  0  0  0  0  0  0  0  0
   19.5393  -29.2477   30.5710 C   0  0  0  0  0  0  0  0  0  0  0  0
   20.0634  -27.9767   28.4803 C   0  0  0  0  0  0  0  0  0  0  0  0
   21.6105  -29.4126   29.1320 C   0  0  0  0  0  0  0  0  0  0  0  0
   21.2744  -27.2197   26.4608 C   0  0  0  0  0  0  0  0  0  0  0  0
   23.9807  -25.2863   25.1284 O   0  0  0  0  0  0  0  0  0  0  0  0
   25.1162  -26.0094   24.6563 C   0  0  1  0  0  0  0  0  0  0  0  0
   26.0403  -25.0789   23.8701 C   0  0  0  0  0  0  0  0  0  0  0  0
   25.7810  -26.5874   25.9008 C   0  0  1  0  0  0  0  0  0  0  0  0
   20.5288  -26.2722   24.3868 C   0  0  0  0  0  0  0  0  0  0  0  0
   20.2818  -27.0624   25.4842 C   0  0  0  0  0  0  0  0  0  0  0  0
   22.9088  -24.1607   20.0202 C   0  0  0  0  0  0  0  0  0  0  0  0
   21.8628  -25.2169   19.7365 C   0  0  0  0  0  0  0  0  0  0  0  0
   23.2761  -23.2887   19.0029 C   0  0  0  0  0  0  0  0  0  0  0  0
   24.2191  -22.2931   19.2283 C   0  0  0  0  0  0  0  0  0  0  0  0
   24.4696  -22.9622   21.4222 C   0  0  0  0  0  0  0  0  0  0  0  0
   20.3692  -28.8886   29.4263 N   0  0  0  0  0  0  0  0  0  0  0  0
   19.0352  -27.2985   28.4174 O   0  0  0  0  0  0  0  0  0  0  0  0
   21.0989  -27.9721   27.6078 N   0  0  0  0  0  0  0  0  0  0  0  0
   22.0481  -28.8820   28.0588 N   0  0  0  0  0  0  0  0  0  0  0  0
   22.4168  -30.4338   29.8866 C   0  0  0  0  0  0  0  0  0  0  0  0
   21.9062  -31.7531   29.7756 O   0  0  0  0  0  0  0  0  0  0  0  0
   22.4487  -26.6292   26.2950 N   0  0  0  0  0  0  0  0  0  0  0  0
   22.7518  -25.8707   25.2397 C   0  0  0  0  0  0  0  0  0  0  0  0
   25.4872  -25.7711   26.9862 F   0  0  0  0  0  0  0  0  0  0  0  0
   25.2618  -27.8408   26.1220 F   0  0  0  0  0  0  0  0  0  0  0  0
   27.1512  -26.6449   25.7308 F   0  0  0  0  0  0  0  0  0  0  0  0
   21.7860  -25.6593   24.2105 C   0  0  0  0  0  0  0  0  0  0  0  0
   19.0764  -27.6372   25.5722 F   0  0  0  0  0  0  0  0  0  0  0  0
   22.0048  -24.7915   23.0253 C   0  0  0  0  0  0  0  0  0  0  0  0
   21.1376  -23.9926   22.7083 O   0  0  0  0  0  0  0  0  0  0  0  0
   23.2051  -24.8125   22.3672 N   0  0  0  0  0  0  0  0  0  0  0  0
   23.5386  -24.0024   21.2743 C   0  0  0  0  0  0  0  0  0  0  0  0
   24.7833  -22.1499   20.4200 N   0  0  0  0  0  0  0  0  0  0  0  0
   25.2385  -22.7316   22.9393 Cl  0  0  0  0  0  0  0  0  0  0  0  0
   19.6683  -29.0073   32.7106 H   0  0  0  0  0  0  0  0  0  0  0  0
   21.0547  -28.3231   31.7961 H   0  0  0  0  0  0  0  0  0  0  0  0
   19.4719  -27.4737   31.7961 H   0  0  0  0  0  0  0  0  0  0  0  0
   19.6483  -30.3232   30.7743 H   0  0  0  0  0  0  0  0  0  0  0  0
   18.4904  -29.0109   30.3391 H   0  0  0  0  0  0  0  0  0  0  0  0
   24.8476  -26.8184   23.9610 H   0  0  0  0  0  0  0  0  0  0  0  0
   26.6377  -24.4774   24.5710 H   0  0  0  0  0  0  0  0  0  0  0  0
   26.7113  -25.6779   23.2368 H   0  0  0  0  0  0  0  0  0  0  0  0
   25.4368  -24.4121   23.2368 H   0  0  0  0  0  0  0  0  0  0  0  0
   19.7375  -26.1166   23.6387 H   0  0  0  0  0  0  0  0  0  0  0  0
   21.4725  -25.6109   20.6865 H   0  0  0  0  0  0  0  0  0  0  0  0
   21.0396  -24.7717   19.1585 H   0  0  0  0  0  0  0  0  0  0  0  0
   22.3158  -26.0357   19.1585 H   0  0  0  0  0  0  0  0  0  0  0  0
   22.8158  -23.3873   18.0087 H   0  0  0  0  0  0  0  0  0  0  0  0
   24.5009  -21.6158   18.4086 H   0  0  0  0  0  0  0  0  0  0  0  0
   23.4447  -30.4243   29.4949 H   0  0  0  0  0  0  0  0  0  0  0  0
   22.3731  -30.1585   30.9507 H   0  0  0  0  0  0  0  0  0  0  0  0
   21.7611  -32.1279   30.6803 H   0  0  0  0  0  0  0  0  0  0  0  0
   23.9185  -25.4758   22.7018 H   0  0  0  0  0  0  0  0  0  0  0  0
  1  2  1  0
  2 17  1  0
  3 17  1  0
  3 18  2  0
  3 19  1  0
  4 17  1  0
  4 20  2  0
  4 21  1  0
  5 11  1  0
  5 19  1  0
  5 23  2  0
  6  7  1  0
  6 24  1  0
  7  8  1  0
  7  9  1  0
  9 25  1  1
  9 26  1  0
  9 27  1  0
 10 11  2  0
 10 28  1  0
 11 29  1  0
 12 13  1  0
 12 14  2  0
 12 33  1  0
 14 15  1  0
 15 34  2  0
 16 33  2  0
 16 34  1  0
 16 35  1  0
 19 20  1  0
 21 22  1  0
 23 24  1  0
 24 28  2  0
 28 30  1  0
 30 31  2  0
 30 32  1  0
 32 33  1  0
  1 36  1  0
  1 37  1  0
  1 38  1  0
  2 39  1  0
  2 40  1  0
  7 41  1  6
  8 42  1  0
  8 43  1  0
  8 44  1  0
 10 45  1  0
 13 46  1  0
 13 47  1  0
 13 48  1  0
 14 49  1  0
 15 50  1  0
 21 51  1  0
 21 52  1  0
 22 53  1  0
 32 54  1  0
M  END
>  <filename_input>  (12) 
8DHG_T78_docked.sdf

>  <pdb_id>  (12) 
8DHG_T78

>  <pose_rank>  (12) 
11

>  <num_atoms_heavy>  (12) 
35

>  <num_torsions>  (12) 
7

>  <pose>  (12) 
[20.06338572498126, -27.976730361222963, 28.4803244261469, -1.7877149453050245, 0.8705885209072206, -2.2748057183602373, 0.9129000299300015, 3.904198107340779, 2.9415284253372027, 0.29357440928165573, 1.6394958550163987, 0.8405160947921276, -1.4953814065200774]

>  <energy>  (12) 
-498.4893086032652

>  <inter_energy>  (12) 
-588.5078901199604

>  <intra_energy>  (12) 
79.89349537719905

>  <rmsd>  (12) 
9.32036

>  <sdf_rank>  (12) 
0

$$$$

     RDKit          3D

 54 56  0  0  0  0  0  0  0  0999 V2000
   24.8973  -21.6624   21.3658 C   0  0  0  0  0  0  0  0  0  0  0  0
   25.5467  -22.3177   22.5796 C   0  0  0  0  0  0  0  0  0  0  0  0
   24.6438  -23.8936   24.3006 C   0  0  0  0  0  0  0  0  0  0  0  0
   23.9717  -24.2630   22.2290 C   0  0  0  0  0  0  0  0  0  0  0  0
   23.3999  -25.7851   25.2971 C   0  0  0  0  0  0  0  0  0  0  0  0
   20.2190  -27.0938   26.3006 O   0  0  0  0  0  0  0  0  0  0  0  0
   19.3745  -26.6878   25.2249 C   0  0  1  0  0  0  0  0  0  0  0  0
   18.7791  -27.9151   24.5341 C   0  0  0  0  0  0  0  0  0  0  0  0
   18.3128  -25.7912   25.8525 C   0  0  1  0  0  0  0  0  0  0  0  0
   23.7511  -27.0870   27.2813 C   0  0  0  0  0  0  0  0  0  0  0  0
   24.2623  -26.3107   26.2686 C   0  0  0  0  0  0  0  0  0  0  0  0
   22.7539  -30.2945   31.0886 C   0  0  0  0  0  0  0  0  0  0  0  0
   23.9759  -29.4698   31.4302 C   0  0  0  0  0  0  0  0  0  0  0  0
   22.2411  -31.1632   32.0439 C   0  0  0  0  0  0  0  0  0  0  0  0
   21.1095  -31.9240   31.7760 C   0  0  0  0  0  0  0  0  0  0  0  0
   20.9465  -31.0209   29.6590 C   0  0  0  0  0  0  0  0  0  0  0  0
   24.7530  -23.4561   23.0293 N   0  0  0  0  0  0  0  0  0  0  0  0
   25.1958  -23.4138   25.2937 O   0  0  0  0  0  0  0  0  0  0  0  0
   23.8263  -24.9724   24.2626 N   0  0  0  0  0  0  0  0  0  0  0  0
   23.4239  -25.1635   22.9458 N   0  0  0  0  0  0  0  0  0  0  0  0
   23.7214  -24.1805   20.7481 C   0  0  0  0  0  0  0  0  0  0  0  0
   23.2719  -25.4010   20.1809 O   0  0  0  0  0  0  0  0  0  0  0  0
   22.1076  -26.0716   25.3519 N   0  0  0  0  0  0  0  0  0  0  0  0
   21.5601  -26.8378   26.2975 C   0  0  0  0  0  0  0  0  0  0  0  0
   17.0575  -26.3082   25.5566 F   0  0  0  0  0  0  0  0  0  0  0  0
   18.4965  -25.7972   27.2148 F   0  0  0  0  0  0  0  0  0  0  0  0
   18.4083  -24.5081   25.3484 F   0  0  0  0  0  0  0  0  0  0  0  0
   22.3771  -27.3992   27.3241 C   0  0  0  0  0  0  0  0  0  0  0  0
   25.5805  -26.0791   26.2737 F   0  0  0  0  0  0  0  0  0  0  0  0
   21.8590  -28.2187   28.4492 C   0  0  0  0  0  0  0  0  0  0  0  0
   20.7912  -27.9171   28.9587 O   0  0  0  0  0  0  0  0  0  0  0  0
   22.5162  -29.3564   28.8337 N   0  0  0  0  0  0  0  0  0  0  0  0
   22.0914  -30.2298   29.8430 C   0  0  0  0  0  0  0  0  0  0  0  0
   20.4914  -31.8324   30.6061 N   0  0  0  0  0  0  0  0  0  0  0  0
   20.1078  -30.9509   28.1631 Cl  0  0  0  0  0  0  0  0  0  0  0  0
   24.1600  -20.9183   21.7014 H   0  0  0  0  0  0  0  0  0  0  0  0
   25.6697  -21.1659   20.7601 H   0  0  0  0  0  0  0  0  0  0  0  0
   24.3938  -22.4302   20.7601 H   0  0  0  0  0  0  0  0  0  0  0  0
   26.5551  -22.6636   22.3084 H   0  0  0  0  0  0  0  0  0  0  0  0
   25.6057  -21.5804   23.3938 H   0  0  0  0  0  0  0  0  0  0  0  0
   19.9168  -26.1393   24.4406 H   0  0  0  0  0  0  0  0  0  0  0  0
   18.4318  -28.6309   25.2936 H   0  0  0  0  0  0  0  0  0  0  0  0
   17.9305  -27.6066   23.9058 H   0  0  0  0  0  0  0  0  0  0  0  0
   19.5466  -28.3906   23.9058 H   0  0  0  0  0  0  0  0  0  0  0  0
   24.4209  -27.4683   28.0662 H   0  0  0  0  0  0  0  0  0  0  0  0
   24.0779  -29.4009   32.5233 H   0  0  0  0  0  0  0  0  0  0  0  0
   24.8714  -29.9489   31.0078 H   0  0  0  0  0  0  0  0  0  0  0  0
   23.8666  -28.4600   31.0078 H   0  0  0  0  0  0  0  0  0  0  0  0
   22.7360  -31.2497   33.0225 H   0  0  0  0  0  0  0  0  0  0  0  0
   20.7218  -32.6103   32.5433 H   0  0  0  0  0  0  0  0  0  0  0  0
   22.9575  -23.4101   20.5666 H   0  0  0  0  0  0  0  0  0  0  0  0
   24.6819  -23.9364   20.2709 H   0  0  0  0  0  0  0  0  0  0  0  0
   23.0384  -26.0349   20.9045 H   0  0  0  0  0  0  0  0  0  0  0  0
   23.3913  -29.5883   28.3424 H   0  0  0  0  0  0  0  0  0  0  0  0
  1  2  1  0
  2 17  1  0
  3 17  1  0
  3 18  2  0
  3 19  1  0
  4 17  1  0
  4 20  2  0
  4 21  1  0
  5 11  1  0
  5 19  1  0
  5 23  2  0
  6  7  1  0
  6 24  1  0
  7  8  1  0
  7  9  1  0
  9 25  1  1
  9 26  1  0
  9 27  1  0
 10 11  2  0
 10 28  1  0
 11 29  1  0
 12 13  1  0
 12 14  2  0
 12 33  1  0
 14 15  1  0
 15 34  2  0
 16 33  2  0
 16 34  1  0
 16 35  1  0
 19 20  1  0
 21 22  1  0
 23 24  1  0
 24 28  2  0
 28 30  1  0
 30 31  2  0
 30 32  1  0
 32 33  1  0
  1 36  1  0
  1 37  1  0
  1 38  1  0
  2 39  1  0
  2 40  1  0
  7 41  1  6
  8 42  1  0
  8 43  1  0
  8 44  1  0
 10 45  1  0
 13 46  1  0
 13 47  1  0
 13 48  1  0
 14 49  1  0
 15 50  1  0
 21 51  1  0
 21 52  1  0
 22 53  1  0
 32 54  1  0
M  END
>  <filename_input>  (13) 
8DHG_T78_docked.sdf

>  <pdb_id>  (13) 
8DHG_T78

>  <pose_rank>  (13) 
12

>  <num_atoms_heavy>  (13) 
35

>  <num_torsions>  (13) 
7

>  <pose>  (13) 
[24.643776048323588, -23.893588325588958, 24.300644677701705, -2.5947811993794363, -1.2760254370951896, 1.139741894630789, 2.570097136483575, 9.494970767874625, -4.272828304733737, 1.7917680955207618, 0.35294385899640496, 0.3102794990474577, -3.177024297462241]

>  <energy>  (13) 
-423.8935065303872

>  <inter_energy>  (13) 
-478.63618937500394

>  <intra_energy>  (13) 
50.207381559908626

>  <rmsd>  (13) 
9.08677

>  <sdf_rank>  (13) 
0

$$$$

     RDKit          3D

 54 56  0  0  0  0  0  0  0  0999 V2000
   25.6636  -19.0891   12.9644 C   0  0  0  0  0  0  0  0  0  0  0  0
   24.8279  -19.0593   14.2392 C   0  0  0  0  0  0  0  0  0  0  0  0
   26.1991  -19.7878   16.2013 C   0  0  0  0  0  0  0  0  0  0  0  0
   24.9850  -21.3700   15.2511 C   0  0  0  0  0  0  0  0  0  0  0  0
   27.2038  -21.2561   17.9196 C   0  0  0  0  0  0  0  0  0  0  0  0
   26.7289  -23.0686   20.9736 O   0  0  0  0  0  0  0  0  0  0  0  0
   25.4020  -22.7897   21.4171 C   0  0  1  0  0  0  0  0  0  0  0  0
   24.4074  -23.7055   20.7029 C   0  0  0  0  0  0  0  0  0  0  0  0
   25.4207  -23.0025   22.9268 C   0  0  1  0  0  0  0  0  0  0  0  0
   29.2551  -21.1301   19.1574 C   0  0  0  0  0  0  0  0  0  0  0  0
   28.5330  -20.8255   18.0280 C   0  0  0  0  0  0  0  0  0  0  0  0
   30.4480  -21.6727   24.4284 C   0  0  0  0  0  0  0  0  0  0  0  0
   28.9681  -21.8417   24.6959 C   0  0  0  0  0  0  0  0  0  0  0  0
   31.3444  -21.8495   25.4750 C   0  0  0  0  0  0  0  0  0  0  0  0
   32.7123  -21.7217   25.2662 C   0  0  0  0  0  0  0  0  0  0  0  0
   32.3748  -21.2511   23.0328 C   0  0  0  0  0  0  0  0  0  0  0  0
   25.3297  -20.0355   15.2000 N   0  0  0  0  0  0  0  0  0  0  0  0
   26.7199  -18.7031   16.4718 O   0  0  0  0  0  0  0  0  0  0  0  0
   26.3987  -20.9691   16.8325 N   0  0  0  0  0  0  0  0  0  0  0  0
   25.6134  -21.9310   16.2078 N   0  0  0  0  0  0  0  0  0  0  0  0
   24.0281  -22.1408   14.3836 C   0  0  0  0  0  0  0  0  0  0  0  0
   24.4985  -22.3401   13.0598 O   0  0  0  0  0  0  0  0  0  0  0  0
   26.6732  -21.9788   18.8950 N   0  0  0  0  0  0  0  0  0  0  0  0
   27.3336  -22.3237   20.0022 C   0  0  0  0  0  0  0  0  0  0  0  0
   26.4182  -23.9184   23.2382 F   0  0  0  0  0  0  0  0  0  0  0  0
   25.7063  -21.7990   23.5265 F   0  0  0  0  0  0  0  0  0  0  0  0
   24.2021  -23.4908   23.3583 F   0  0  0  0  0  0  0  0  0  0  0  0
   28.6878  -21.9120   20.1841 C   0  0  0  0  0  0  0  0  0  0  0  0
   29.1442  -20.1046   17.0804 F   0  0  0  0  0  0  0  0  0  0  0  0
   29.4912  -22.1971   21.4003 C   0  0  0  0  0  0  0  0  0  0  0  0
   29.6295  -23.3555   21.7605 O   0  0  0  0  0  0  0  0  0  0  0  0
   30.1548  -21.1857   22.0413 N   0  0  0  0  0  0  0  0  0  0  0  0
   30.9802  -21.3470   23.1614 C   0  0  0  0  0  0  0  0  0  0  0  0
   33.1915  -21.4350   24.0632 N   0  0  0  0  0  0  0  0  0  0  0  0
   33.0539  -20.8752   21.5019 Cl  0  0  0  0  0  0  0  0  0  0  0  0
   26.7312  -19.1272   13.2266 H   0  0  0  0  0  0  0  0  0  0  0  0
   25.3992  -19.9784   12.3734 H   0  0  0  0  0  0  0  0  0  0  0  0
   25.4633  -18.1833   12.3734 H   0  0  0  0  0  0  0  0  0  0  0  0
   24.8800  -18.0542   14.6831 H   0  0  0  0  0  0  0  0  0  0  0  0
   23.7863  -19.3088   13.9885 H   0  0  0  0  0  0  0  0  0  0  0  0
   25.0813  -21.7636   21.1840 H   0  0  0  0  0  0  0  0  0  0  0  0
   23.8125  -24.2532   21.4487 H   0  0  0  0  0  0  0  0  0  0  0  0
   23.7387  -23.1003   20.0732 H   0  0  0  0  0  0  0  0  0  0  0  0
   24.9554  -24.4217   20.0732 H   0  0  0  0  0  0  0  0  0  0  0  0
   30.2858  -20.7601   19.2609 H   0  0  0  0  0  0  0  0  0  0  0  0
   28.7917  -21.8619   25.7815 H   0  0  0  0  0  0  0  0  0  0  0  0
   28.4165  -21.0007   24.2504 H   0  0  0  0  0  0  0  0  0  0  0  0
   28.6203  -22.7854   24.2504 H   0  0  0  0  0  0  0  0  0  0  0  0
   30.9674  -22.0932   26.4792 H   0  0  0  0  0  0  0  0  0  0  0  0
   33.4059  -21.8600   26.1087 H   0  0  0  0  0  0  0  0  0  0  0  0
   23.8564  -23.1249   14.8440 H   0  0  0  0  0  0  0  0  0  0  0  0
   23.1052  -21.5464   14.3128 H   0  0  0  0  0  0  0  0  0  0  0  0
   25.4097  -22.7262   13.0881 H   0  0  0  0  0  0  0  0  0  0  0  0
   30.0379  -20.2317   21.6711 H   0  0  0  0  0  0  0  0  0  0  0  0
  1  2  1  0
  2 17  1  0
  3 17  1  0
  3 18  2  0
  3 19  1  0
  4 17  1  0
  4 20  2  0
  4 21  1  0
  5 11  1  0
  5 19  1  0
  5 23  2  0
  6  7  1  0
  6 24  1  0
  7  8  1  0
  7  9  1  0
  9 25  1  6
  9 26  1  0
  9 27  1  0
 10 11  2  0
 10 28  1  0
 11 29  1  0
 12 13  1  0
 12 14  2  0
 12 33  1  0
 14 15  1  0
 15 34  2  0
 16 33  2  0
 16 34  1  0
 16 35  1  0
 19 20  1  0
 21 22  1  0
 23 24  1  0
 24 28  2  0
 28 30  1  0
 30 31  2  0
 30 32  1  0
 32 33  1  0
  1 36  1  0
  1 37  1  0
  1 38  1  0
  2 39  1  0
  2 40  1  0
  7 41  1  1
  8 42  1  0
  8 43  1  0
  8 44  1  0
 10 45  1  0
 13 46  1  0
 13 47  1  0
 13 48  1  0
 14 49  1  0
 15 50  1  0
 21 51  1  0
 21 52  1  0
 22 53  1  0
 32 54  1  0
M  END
>  <filename_input>  (14) 
8DHG_T78_docked.sdf

>  <pdb_id>  (14) 
8DHG_T78

>  <pose_rank>  (14) 
13

>  <num_atoms_heavy>  (14) 
35

>  <num_torsions>  (14) 
7

>  <pose>  (14) 
[26.199123628385234, -19.78783294538791, 16.201265131330917, 1.4260570447638812, 1.618224056857066, -2.037100398081933, -8.35166254196526, -2.4240054210508193, -0.01422215142543802, 0.2527994357944061, -0.546110773694712, -0.017347755331338453, -1.4896959630864202]

>  <energy>  (14) 
-436.9064394372661

>  <inter_energy>  (14) 
-470.45502781114016

>  <intra_energy>  (14) 
19.58960023444677

>  <rmsd>  (14) 
8.51821

>  <sdf_rank>  (14) 
0

$$$$

     RDKit          3D

 54 56  0  0  0  0  0  0  0  0999 V2000
   16.2497  -26.0036   24.2684 C   0  0  0  0  0  0  0  0  0  0  0  0
   17.4106  -26.5453   23.4418 C   0  0  0  0  0  0  0  0  0  0  0  0
   19.3872  -27.2643   24.7970 C   0  0  0  0  0  0  0  0  0  0  0  0
   19.3574  -25.1327   24.2178 C   0  0  0  0  0  0  0  0  0  0  0  0
   21.5136  -27.1413   26.0546 C   0  0  0  0  0  0  0  0  0  0  0  0
   25.0836  -26.8782   25.9025 O   0  0  0  0  0  0  0  0  0  0  0  0
   25.3804  -25.5381   25.5135 C   0  0  1  0  0  0  0  0  0  0  0  0
   26.3145  -24.8903   26.5362 C   0  0  0  0  0  0  0  0  0  0  0  0
   26.0054  -25.6422   24.1267 C   0  0  1  0  0  0  0  0  0  0  0  0
   22.4089  -28.4539   27.8520 C   0  0  0  0  0  0  0  0  0  0  0  0
   21.3192  -27.9656   27.1711 C   0  0  0  0  0  0  0  0  0  0  0  0
   26.4585  -31.4462   29.3217 C   0  0  0  0  0  0  0  0  0  0  0  0
   26.2461  -32.0909   27.9692 C   0  0  0  0  0  0  0  0  0  0  0  0
   27.4544  -31.9425   30.1536 C   0  0  0  0  0  0  0  0  0  0  0  0
   27.6936  -31.3664   31.3953 C   0  0  0  0  0  0  0  0  0  0  0  0
   26.0149  -29.8207   31.0535 C   0  0  0  0  0  0  0  0  0  0  0  0
   18.6750  -26.3284   24.1361 N   0  0  0  0  0  0  0  0  0  0  0  0
   19.0921  -28.4542   24.9317 O   0  0  0  0  0  0  0  0  0  0  0  0
   20.4751  -26.6316   25.2968 N   0  0  0  0  0  0  0  0  0  0  0  0
   20.4186  -25.2993   24.9040 N   0  0  0  0  0  0  0  0  0  0  0  0
   19.0101  -23.7950   23.6242 C   0  0  0  0  0  0  0  0  0  0  0  0
   19.6004  -23.5686   22.3539 O   0  0  0  0  0  0  0  0  0  0  0  0
   22.7462  -26.8188   25.6916 N   0  0  0  0  0  0  0  0  0  0  0  0
   23.8391  -27.2441   26.3284 C   0  0  0  0  0  0  0  0  0  0  0  0
   25.0653  -25.2520   23.1808 F   0  0  0  0  0  0  0  0  0  0  0  0
   27.0817  -24.7886   24.0757 F   0  0  0  0  0  0  0  0  0  0  0  0
   26.3960  -26.9430   23.8721 F   0  0  0  0  0  0  0  0  0  0  0  0
   23.7168  -28.0942   27.4682 C   0  0  0  0  0  0  0  0  0  0  0  0
   20.1063  -28.3244   27.6087 F   0  0  0  0  0  0  0  0  0  0  0  0
   24.8687  -28.6639   28.2126 C   0  0  0  0  0  0  0  0  0  0  0  0
   25.9409  -28.0808   28.1809 O   0  0  0  0  0  0  0  0  0  0  0  0
   24.6991  -29.7646   29.0088 N   0  0  0  0  0  0  0  0  0  0  0  0
   25.6991  -30.3528   29.7935 C   0  0  0  0  0  0  0  0  0  0  0  0
   26.9814  -30.3271   31.8099 N   0  0  0  0  0  0  0  0  0  0  0  0
   25.1230  -28.4798   31.6473 Cl  0  0  0  0  0  0  0  0  0  0  0  0
   16.4801  -26.1111   25.3386 H   0  0  0  0  0  0  0  0  0  0  0  0
   16.0955  -24.9405   24.0315 H   0  0  0  0  0  0  0  0  0  0  0  0
   15.3360  -26.5683   24.0315 H   0  0  0  0  0  0  0  0  0  0  0  0
   17.2671  -27.6236   23.2787 H   0  0  0  0  0  0  0  0  0  0  0  0
   17.4384  -26.0171   22.4773 H   0  0  0  0  0  0  0  0  0  0  0  0
   24.4875  -24.8966   25.4785 H   0  0  0  0  0  0  0  0  0  0  0  0
   25.9685  -25.1303   27.5524 H   0  0  0  0  0  0  0  0  0  0  0  0
   27.3353  -25.2754   26.3960 H   0  0  0  0  0  0  0  0  0  0  0  0
   26.3116  -23.7993   26.3960 H   0  0  0  0  0  0  0  0  0  0  0  0
   22.2588  -29.1321   28.7050 H   0  0  0  0  0  0  0  0  0  0  0  0
   25.9045  -33.1275   28.1066 H   0  0  0  0  0  0  0  0  0  0  0  0
   25.4866  -31.5259   27.4089 H   0  0  0  0  0  0  0  0  0  0  0  0
   27.1927  -32.0880   27.4089 H   0  0  0  0  0  0  0  0  0  0  0  0
   28.0598  -32.8005   29.8259 H   0  0  0  0  0  0  0  0  0  0  0  0
   28.4829  -31.7771   32.0421 H   0  0  0  0  0  0  0  0  0  0  0  0
   17.9171  -23.7355   23.5157 H   0  0  0  0  0  0  0  0  0  0  0  0
   19.4043  -23.0267   24.3056 H   0  0  0  0  0  0  0  0  0  0  0  0
   20.5179  -23.2168   22.4744 H   0  0  0  0  0  0  0  0  0  0  0  0
   23.7630  -30.1937   29.0325 H   0  0  0  0  0  0  0  0  0  0  0  0
  1  2  1  0
  2 17  1  0
  3 17  1  0
  3 18  2  0
  3 19  1  0
  4 17  1  0
  4 20  2  0
  4 21  1  0
  5 11  1  0
  5 19  1  0
  5 23  2  0
  6  7  1  0
  6 24  1  0
  7  8  1  0
  7  9  1  0
  9 25  1  6
  9 26  1  0
  9 27  1  0
 10 11  2  0
 10 28  1  0
 11 29  1  0
 12 13  1  0
 12 14  2  0
 12 33  1  0
 14 15  1  0
 15 34  2  0
 16 33  2  0
 16 34  1  0
 16 35  1  0
 19 20  1  0
 21 22  1  0
 23 24  1  0
 24 28  2  0
 28 30  1  0
 30 31  2  0
 30 32  1  0
 32 33  1  0
  1 36  1  0
  1 37  1  0
  1 38  1  0
  2 39  1  0
  2 40  1  0
  7 41  1  6
  8 42  1  0
  8 43  1  0
  8 44  1  0
 10 45  1  0
 13 46  1  0
 13 47  1  0
 13 48  1  0
 14 49  1  0
 15 50  1  0
 21 51  1  0
 21 52  1  0
 22 53  1  0
 32 54  1  0
M  END
>  <filename_input>  (15) 
8DHG_T78_docked.sdf

>  <pdb_id>  (15) 
8DHG_T78

>  <pose_rank>  (15) 
14

>  <num_atoms_heavy>  (15) 
35

>  <num_torsions>  (15) 
7

>  <pose>  (15) 
[19.387245088823548, -27.26430041741796, 24.79696215557984, -0.23013372028011897, 2.109262531792448, 1.4031753896029726, -2.6073818255009993, 3.4304699456691994, 0.13556972017825517, 3.6768164204050153, 0.9884420433669964, 0.21440038055187063, 0.7944132897191319]

>  <energy>  (15) 
-332.4890935316749

>  <inter_energy>  (15) 
-341.35602630007264

>  <intra_energy>  (15) 
19.268842497815683

>  <rmsd>  (15) 
10.8011

>  <sdf_rank>  (15) 
0

$$$$

     RDKit          3D

 54 56  0  0  0  0  0  0  0  0999 V2000
   24.9487  -20.9125   22.0467 C   0  0  0  0  0  0  0  0  0  0  0  0
   25.5482  -22.2314   21.5719 C   0  0  0  0  0  0  0  0  0  0  0  0
   25.3396  -23.8516   23.4671 C   0  0  0  0  0  0  0  0  0  0  0  0
   23.8433  -24.0751   21.8575 C   0  0  0  0  0  0  0  0  0  0  0  0
   24.4990  -25.7308   24.8383 C   0  0  0  0  0  0  0  0  0  0  0  0
   21.9441  -26.9338   27.0435 O   0  0  0  0  0  0  0  0  0  0  0  0
   20.7581  -26.9623   26.2511 C   0  0  1  0  0  0  0  0  0  0  0  0
   20.0737  -28.3234   26.3810 C   0  0  0  0  0  0  0  0  0  0  0  0
   19.8937  -25.8161   26.7648 C   0  0  1  0  0  0  0  0  0  0  0  0
   25.5556  -27.1537   26.4552 C   0  0  0  0  0  0  0  0  0  0  0  0
   25.6500  -26.3499   25.3441 C   0  0  0  0  0  0  0  0  0  0  0  0
   24.3451  -31.2474   29.6930 C   0  0  0  0  0  0  0  0  0  0  0  0
   25.6079  -31.4754   28.8908 C   0  0  0  0  0  0  0  0  0  0  0  0
   24.1164  -32.0251   30.8214 C   0  0  0  0  0  0  0  0  0  0  0  0
   22.9783  -31.8340   31.5955 C   0  0  0  0  0  0  0  0  0  0  0  0
   22.2612  -30.1374   30.2058 C   0  0  0  0  0  0  0  0  0  0  0  0
   24.9391  -23.3520   22.2798 N   0  0  0  0  0  0  0  0  0  0  0  0
   26.2857  -23.4540   24.1512 O   0  0  0  0  0  0  0  0  0  0  0  0
   24.5099  -24.8853   23.7440 N   0  0  0  0  0  0  0  0  0  0  0  0
   23.5842  -24.9850   22.7118 N   0  0  0  0  0  0  0  0  0  0  0  0
   23.0056  -23.9004   20.6205 C   0  0  0  0  0  0  0  0  0  0  0  0
   21.9652  -24.8578   20.5012 O   0  0  0  0  0  0  0  0  0  0  0  0
   23.3306  -25.9559   25.4209 N   0  0  0  0  0  0  0  0  0  0  0  0
   23.1761  -26.7442   26.4865 C   0  0  0  0  0  0  0  0  0  0  0  0
   18.6899  -26.3344   27.2263 F   0  0  0  0  0  0  0  0  0  0  0  0
   20.5566  -25.2118   27.8064 F   0  0  0  0  0  0  0  0  0  0  0  0
   19.6421  -24.9120   25.7504 F   0  0  0  0  0  0  0  0  0  0  0  0
   24.3064  -27.3999   27.0604 C   0  0  0  0  0  0  0  0  0  0  0  0
   26.8630  -26.1840   24.8036 F   0  0  0  0  0  0  0  0  0  0  0  0
   24.2496  -28.2524   28.2751 C   0  0  0  0  0  0  0  0  0  0  0  0
   24.7617  -27.8477   29.3070 O   0  0  0  0  0  0  0  0  0  0  0  0
   23.5394  -29.4227   28.2639 N   0  0  0  0  0  0  0  0  0  0  0  0
   23.3750  -30.2757   29.3627 C   0  0  0  0  0  0  0  0  0  0  0  0
   22.0900  -30.9017   31.2778 N   0  0  0  0  0  0  0  0  0  0  0  0
   21.0736  -28.9526   29.8423 Cl  0  0  0  0  0  0  0  0  0  0  0  0
   24.9381  -20.8894   23.1465 H   0  0  0  0  0  0  0  0  0  0  0  0
   25.5552  -20.0766   21.6682 H   0  0  0  0  0  0  0  0  0  0  0  0
   23.9200  -20.8200   21.6682 H   0  0  0  0  0  0  0  0  0  0  0  0
   25.3679  -22.3436   20.4926 H   0  0  0  0  0  0  0  0  0  0  0  0
   26.6291  -22.2257   21.7763 H   0  0  0  0  0  0  0  0  0  0  0  0
   20.9593  -26.8321   25.1775 H   0  0  0  0  0  0  0  0  0  0  0  0
   19.9491  -28.5711   27.4454 H   0  0  0  0  0  0  0  0  0  0  0  0
   19.0873  -28.2857   25.8954 H   0  0  0  0  0  0  0  0  0  0  0  0
   20.6922  -29.0926   25.8954 H   0  0  0  0  0  0  0  0  0  0  0  0
   26.4639  -27.6094   26.8764 H   0  0  0  0  0  0  0  0  0  0  0  0
   26.4549  -31.6284   29.5758 H   0  0  0  0  0  0  0  0  0  0  0  0
   25.4838  -32.3657   28.2568 H   0  0  0  0  0  0  0  0  0  0  0  0
   25.8030  -30.5980   28.2568 H   0  0  0  0  0  0  0  0  0  0  0  0
   24.8437  -32.8001   31.1049 H   0  0  0  0  0  0  0  0  0  0  0  0
   22.8121  -32.4635   32.4821 H   0  0  0  0  0  0  0  0  0  0  0  0
   22.5546  -22.8973   20.6442 H   0  0  0  0  0  0  0  0  0  0  0  0
   23.6723  -24.0379   19.7563 H   0  0  0  0  0  0  0  0  0  0  0  0
   21.6655  -25.1336   21.4035 H   0  0  0  0  0  0  0  0  0  0  0  0
   23.0909  -29.6975   27.3783 H   0  0  0  0  0  0  0  0  0  0  0  0
  1  2  1  0
  2 17  1  0
  3 17  1  0
  3 18  2  0
  3 19  1  0
  4 17  1  0
  4 20  2  0
  4 21  1  0
  5 11  1  0
  5 19  1  0
  5 23  2  0
  6  7  1  0
  6 24  1  0
  7  8  1  0
  7  9  1  0
  9 25  1  1
  9 26  1  0
  9 27  1  0
 10 11  2  0
 10 28  1  0
 11 29  1  0
 12 13  1  0
 12 14  2  0
 12 33  1  0
 14 15  1  0
 15 34  2  0
 16 33  2  0
 16 34  1  0
 16 35  1  0
 19 20  1  0
 21 22  1  0
 23 24  1  0
 24 28  2  0
 28 30  1  0
 30 31  2  0
 30 32  1  0
 32 33  1  0
  1 36  1  0
  1 37  1  0
  1 38  1  0
  2 39  1  0
  2 40  1  0
  7 41  1  6
  8 42  1  0
  8 43  1  0
  8 44  1  0
 10 45  1  0
 13 46  1  0
 13 47  1  0
 13 48  1  0
 14 49  1  0
 15 50  1  0
 21 51  1  0
 21 52  1  0
 22 53  1  0
 32 54  1  0
M  END
>  <filename_input>  (16) 
8DHG_T78_docked.sdf

>  <pdb_id>  (16) 
8DHG_T78

>  <pose_rank>  (16) 
15

>  <num_atoms_heavy>  (16) 
35

>  <num_torsions>  (16) 
7

>  <pose>  (16) 
[25.339607838919054, -23.851649484185565, 23.4671267298425, -2.1710679985977954, -1.1024040378101982, 1.5293935015629472, 1.3128656443903781, 9.902628627564244, -3.1870296589334903, 2.1377181047443243, 0.8214202122927423, 0.35280229445130556, -3.117223763135385]

>  <energy>  (16) 
-471.7199015209728

>  <inter_energy>  (16) 
-479.5812692933778

>  <intra_energy>  (16) 
6.13661307337019

>  <rmsd>  (16) 
8.53891

>  <sdf_rank>  (16) 
0

$$$$

     RDKit          3D

 54 56  0  0  0  0  0  0  0  0999 V2000
   25.7201  -21.5932   21.5700 C   0  0  0  0  0  0  0  0  0  0  0  0
   26.2560  -22.7682   22.3801 C   0  0  0  0  0  0  0  0  0  0  0  0
   24.8924  -24.0580   24.0347 C   0  0  0  0  0  0  0  0  0  0  0  0
   24.2262  -24.2064   21.9337 C   0  0  0  0  0  0  0  0  0  0  0  0
   23.1432  -25.5502   24.9468 C   0  0  0  0  0  0  0  0  0  0  0  0
   19.6899  -25.9537   25.8122 O   0  0  0  0  0  0  0  0  0  0  0  0
   18.9053  -26.6810   24.8685 C   0  0  1  0  0  0  0  0  0  0  0  0
   19.3370  -28.1477   24.8477 C   0  0  0  0  0  0  0  0  0  0  0  0
   17.4576  -26.4984   25.3109 C   0  0  1  0  0  0  0  0  0  0  0  0
   23.0499  -26.9213   26.9132 C   0  0  0  0  0  0  0  0  0  0  0  0
   23.7918  -26.3021   25.9356 C   0  0  0  0  0  0  0  0  0  0  0  0
   20.7558  -29.6912   30.4998 C   0  0  0  0  0  0  0  0  0  0  0  0
   22.0402  -29.0629   30.9956 C   0  0  0  0  0  0  0  0  0  0  0  0
   19.9701  -30.4084   31.3934 C   0  0  0  0  0  0  0  0  0  0  0  0
   18.7743  -30.9845   30.9821 C   0  0  0  0  0  0  0  0  0  0  0  0
   19.0729  -30.1859   28.8381 C   0  0  0  0  0  0  0  0  0  0  0  0
   25.1658  -23.6523   22.7776 N   0  0  0  0  0  0  0  0  0  0  0  0
   25.5151  -23.7584   25.0563 O   0  0  0  0  0  0  0  0  0  0  0  0
   23.8145  -24.8727   23.9453 N   0  0  0  0  0  0  0  0  0  0  0  0
   23.4267  -24.9316   22.6117 N   0  0  0  0  0  0  0  0  0  0  0  0
   24.0654  -24.0416   20.4473 C   0  0  0  0  0  0  0  0  0  0  0  0
   22.7566  -24.3336   19.9835 O   0  0  0  0  0  0  0  0  0  0  0  0
   21.8206  -25.4742   24.9511 N   0  0  0  0  0  0  0  0  0  0  0  0
   21.0491  -26.0729   25.8606 C   0  0  0  0  0  0  0  0  0  0  0  0
   17.4239  -26.3749   26.6946 F   0  0  0  0  0  0  0  0  0  0  0  0
   16.9767  -25.3439   24.7405 F   0  0  0  0  0  0  0  0  0  0  0  0
   16.6981  -27.5887   24.9316 F   0  0  0  0  0  0  0  0  0  0  0  0
   21.6421  -26.8477   26.9021 C   0  0  0  0  0  0  0  0  0  0  0  0
   25.1221  -26.4387   25.9909 F   0  0  0  0  0  0  0  0  0  0  0  0
   20.8774  -27.5077   27.9908 C   0  0  0  0  0  0  0  0  0  0  0  0
   20.0623  -26.8540   28.6224 O   0  0  0  0  0  0  0  0  0  0  0  0
   21.0073  -28.8533   28.2072 N   0  0  0  0  0  0  0  0  0  0  0  0
   20.2989  -29.5867   29.1675 C   0  0  0  0  0  0  0  0  0  0  0  0
   18.3545  -30.8567   29.7305 N   0  0  0  0  0  0  0  0  0  0  0  0
   18.4808  -30.0608   27.2318 Cl  0  0  0  0  0  0  0  0  0  0  0  0
   25.3624  -20.8092   22.2537 H   0  0  0  0  0  0  0  0  0  0  0  0
   26.5226  -21.1886   20.9359 H   0  0  0  0  0  0  0  0  0  0  0  0
   24.8884  -21.9340   20.9359 H   0  0  0  0  0  0  0  0  0  0  0  0
   26.9751  -23.3324   21.7679 H   0  0  0  0  0  0  0  0  0  0  0  0
   26.7497  -22.3823   23.2842 H   0  0  0  0  0  0  0  0  0  0  0  0
   19.0340  -26.3188   23.8378 H   0  0  0  0  0  0  0  0  0  0  0  0
   19.4445  -28.5129   25.8797 H   0  0  0  0  0  0  0  0  0  0  0  0
   18.5769  -28.7462   24.3242 H   0  0  0  0  0  0  0  0  0  0  0  0
   20.3001  -28.2390   24.3242 H   0  0  0  0  0  0  0  0  0  0  0  0
   23.5597  -27.4798   27.7120 H   0  0  0  0  0  0  0  0  0  0  0  0
   22.0462  -29.0600   32.0956 H   0  0  0  0  0  0  0  0  0  0  0  0
   22.8986  -29.6429   30.6258 H   0  0  0  0  0  0  0  0  0  0  0  0
   22.1094  -28.0293   30.6258 H   0  0  0  0  0  0  0  0  0  0  0  0
   20.2980  -30.5213   32.4373 H   0  0  0  0  0  0  0  0  0  0  0  0
   18.1688  -31.5533   31.7031 H   0  0  0  0  0  0  0  0  0  0  0  0
   24.3036  -23.0003   20.1847 H   0  0  0  0  0  0  0  0  0  0  0  0
   24.7465  -24.7594   19.9668 H   0  0  0  0  0  0  0  0  0  0  0  0
   22.1544  -24.4680   20.7577 H   0  0  0  0  0  0  0  0  0  0  0  0
   21.6784  -29.3663   27.6179 H   0  0  0  0  0  0  0  0  0  0  0  0
  1  2  1  0
  2 17  1  0
  3 17  1  0
  3 18  2  0
  3 19  1  0
  4 17  1  0
  4 20  2  0
  4 21  1  0
  5 11  1  0
  5 19  1  0
  5 23  2  0
  6  7  1  0
  6 24  1  0
  7  8  1  0
  7  9  1  0
  9 25  1  1
  9 26  1  0
  9 27  1  0
 10 11  2  0
 10 28  1  0
 11 29  1  0
 12 13  1  0
 12 14  2  0
 12 33  1  0
 14 15  1  0
 15 34  2  0
 16 33  2  0
 16 34  1  0
 16 35  1  0
 19 20  1  0
 21 22  1  0
 23 24  1  0
 24 28  2  0
 28 30  1  0
 30 31  2  0
 30 32  1  0
 32 33  1  0
  1 36  1  0
  1 37  1  0
  1 38  1  0
  2 39  1  0
  2 40  1  0
  7 41  1  6
  8 42  1  0
  8 43  1  0
  8 44  1  0
 10 45  1  0
 13 46  1  0
 13 47  1  0
 13 48  1  0
 14 49  1  0
 15 50  1  0
 21 51  1  0
 21 52  1  0
 22 53  1  0
 32 54  1  0
M  END
>  <filename_input>  (17) 
8DHG_T78_docked.sdf

>  <pdb_id>  (17) 
8DHG_T78

>  <pose_rank>  (17) 
16

>  <num_atoms_heavy>  (17) 
35

>  <num_torsions>  (17) 
7

>  <pose>  (17) 
[24.892428033698152, -24.058041012993037, 24.034722607107497, -2.6826783856969842, -0.8899221028116016, 1.0310931122127658, 2.356620451011059, 9.87009678633224, -3.879048464890941, 2.5421410208079855, 1.5577565828867856, -0.8960506700319065, -1.5713395713454075]

>  <energy>  (17) 
-466.1499274592723

>  <inter_energy>  (17) 
-489.51303659842534

>  <intra_energy>  (17) 
36.66688731514121

>  <rmsd>  (17) 
8.82439

>  <sdf_rank>  (17) 
0

$$$$

     RDKit          3D

 54 56  0  0  0  0  0  0  0  0999 V2000
   21.3525  -23.4422   19.6013 C   0  0  0  0  0  0  0  0  0  0  0  0
   22.1522  -23.0416   20.8360 C   0  0  0  0  0  0  0  0  0  0  0  0
   21.2591  -24.2602   22.8305 C   0  0  0  0  0  0  0  0  0  0  0  0
   23.0259  -25.1753   21.8710 C   0  0  0  0  0  0  0  0  0  0  0  0
   21.0500  -25.9582   24.6169 C   0  0  0  0  0  0  0  0  0  0  0  0
   20.0990  -29.3008   25.4886 O   0  0  0  0  0  0  0  0  0  0  0  0
   18.8950  -29.8522   24.9579 C   0  0  1  0  0  0  0  0  0  0  0  0
   18.9432  -29.8422   23.4296 C   0  0  0  0  0  0  0  0  0  0  0  0
   18.7986  -31.2598   25.5358 C   0  0  1  0  0  0  0  0  0  0  0  0
   20.0950  -25.8840   26.8164 C   0  0  0  0  0  0  0  0  0  0  0  0
   20.6893  -25.2339   25.7610 C   0  0  0  0  0  0  0  0  0  0  0  0
   16.3831  -28.7667   29.5039 C   0  0  0  0  0  0  0  0  0  0  0  0
   15.8494  -29.2370   28.1681 C   0  0  0  0  0  0  0  0  0  0  0  0
   15.7961  -29.2458   30.6683 C   0  0  0  0  0  0  0  0  0  0  0  0
   16.2691  -28.8529   31.9145 C   0  0  0  0  0  0  0  0  0  0  0  0
   17.8848  -27.5283   30.9354 C   0  0  0  0  0  0  0  0  0  0  0  0
   22.1421  -24.1178   21.8206 N   0  0  0  0  0  0  0  0  0  0  0  0
   20.3186  -23.5081   23.0969 O   0  0  0  0  0  0  0  0  0  0  0  0
   21.6251  -25.3784   23.5008 N   0  0  0  0  0  0  0  0  0  0  0  0
   22.7326  -25.9227   22.8610 N   0  0  0  0  0  0  0  0  0  0  0  0
   24.1739  -25.5020   20.9557 C   0  0  0  0  0  0  0  0  0  0  0  0
   23.7696  -25.8366   19.6373 O   0  0  0  0  0  0  0  0  0  0  0  0
   20.8414  -27.2661   24.5831 N   0  0  0  0  0  0  0  0  0  0  0  0
   20.2903  -27.9525   25.5860 C   0  0  0  0  0  0  0  0  0  0  0  0
   19.8821  -31.4734   26.3792 F   0  0  0  0  0  0  0  0  0  0  0  0
   17.6345  -31.3472   26.2616 F   0  0  0  0  0  0  0  0  0  0  0  0
   18.8182  -32.1980   24.5215 F   0  0  0  0  0  0  0  0  0  0  0  0
   19.8900  -27.2782   26.7784 C   0  0  0  0  0  0  0  0  0  0  0  0
   20.8801  -23.9143   25.8774 F   0  0  0  0  0  0  0  0  0  0  0  0
   19.2205  -27.9397   27.9273 C   0  0  0  0  0  0  0  0  0  0  0  0
   19.7102  -28.9568   28.3924 O   0  0  0  0  0  0  0  0  0  0  0  0
   18.1345  -27.3559   28.5222 N   0  0  0  0  0  0  0  0  0  0  0  0
   17.4593  -27.8623   29.6401 C   0  0  0  0  0  0  0  0  0  0  0  0
   17.2943  -28.0180   32.0190 N   0  0  0  0  0  0  0  0  0  0  0  0
   19.2024  -26.4464   31.1346 Cl  0  0  0  0  0  0  0  0  0  0  0  0
   20.4092  -23.9147   19.9128 H   0  0  0  0  0  0  0  0  0  0  0  0
   21.1333  -22.5475   19.0002 H   0  0  0  0  0  0  0  0  0  0  0  0
   21.9379  -24.1535   19.0002 H   0  0  0  0  0  0  0  0  0  0  0  0
   23.1906  -22.8294   20.5418 H   0  0  0  0  0  0  0  0  0  0  0  0
   21.6947  -22.1461   21.2819 H   0  0  0  0  0  0  0  0  0  0  0  0
   18.0027  -29.2696   25.2308 H   0  0  0  0  0  0  0  0  0  0  0  0
   19.9697  -29.6295   23.0965 H   0  0  0  0  0  0  0  0  0  0  0  0
   18.6294  -30.8244   23.0465 H   0  0  0  0  0  0  0  0  0  0  0  0
   18.2650  -29.0655   23.0465 H   0  0  0  0  0  0  0  0  0  0  0  0
   19.7763  -25.3106   27.6993 H   0  0  0  0  0  0  0  0  0  0  0  0
   15.0333  -29.9562   28.3320 H   0  0  0  0  0  0  0  0  0  0  0  0
   15.4696  -28.3746   27.6008 H   0  0  0  0  0  0  0  0  0  0  0  0
   16.6573  -29.7222   27.6008 H   0  0  0  0  0  0  0  0  0  0  0  0
   14.9481  -29.9434   30.6032 H   0  0  0  0  0  0  0  0  0  0  0  0
   15.7875  -29.2389   32.8251 H   0  0  0  0  0  0  0  0  0  0  0  0
   24.8383  -24.6268   20.9045 H   0  0  0  0  0  0  0  0  0  0  0  0
   24.6791  -26.3855   21.3731 H   0  0  0  0  0  0  0  0  0  0  0  0
   23.0075  -26.4673   19.6760 H   0  0  0  0  0  0  0  0  0  0  0  0
   17.7867  -26.4756   28.1160 H   0  0  0  0  0  0  0  0  0  0  0  0
  1  2  1  0
  2 17  1  0
  3 17  1  0
  3 18  2  0
  3 19  1  0
  4 17  1  0
  4 20  2  0
  4 21  1  0
  5 11  1  0
  5 19  1  0
  5 23  2  0
  6  7  1  0
  6 24  1  0
  7  8  1  0
  7  9  1  0
  9 25  1  1
  9 26  1  0
  9 27  1  0
 10 11  2  0
 10 28  1  0
 11 29  1  0
 12 13  1  0
 12 14  2  0
 12 33  1  0
 14 15  1  0
 15 34  2  0
 16 33  2  0
 16 34  1  0
 16 35  1  0
 19 20  1  0
 21 22  1  0
 23 24  1  0
 24 28  2  0
 28 30  1  0
 30 31  2  0
 30 32  1  0
 32 33  1  0
  1 36  1  0
  1 37  1  0
  1 38  1  0
  2 39  1  0
  2 40  1  0
  7 41  1  6
  8 42  1  0
  8 43  1  0
  8 44  1  0
 10 45  1  0
 13 46  1  0
 13 47  1  0
 13 48  1  0
 14 49  1  0
 15 50  1  0
 21 51  1  0
 21 52  1  0
 22 53  1  0
 32 54  1  0
M  END
>  <filename_input>  (18) 
8DHG_T78_docked.sdf

>  <pdb_id>  (18) 
8DHG_T78

>  <pose_rank>  (18) 
17

>  <num_atoms_heavy>  (18) 
35

>  <num_torsions>  (18) 
7

>  <pose>  (18) 
[21.25908757518243, -24.260181401854, 22.830499194052415, -2.9040506031755435, -3.240824026052195, 0.48529839582480305, 4.112605297339977, -2.7494123914505373, 3.000988942592509, -2.1334897332411225, -1.3408742353271768, -0.2962533723250692, -0.9966060831512159]

>  <energy>  (18) 
-373.64094319768776

>  <inter_energy>  (18) 
-389.1086630473814

>  <intra_energy>  (18) 
15.453470313165523

>  <rmsd>  (18) 
10.0075

>  <sdf_rank>  (18) 
0

$$$$

     RDKit          3D

 54 56  0  0  0  0  0  0  0  0999 V2000
   24.0280  -21.1349   20.9636 C   0  0  0  0  0  0  0  0  0  0  0  0
   24.5534  -22.5431   20.7083 C   0  0  0  0  0  0  0  0  0  0  0  0
   23.6076  -23.7097   22.7096 C   0  0  0  0  0  0  0  0  0  0  0  0
   22.8734  -24.4306   20.7548 C   0  0  0  0  0  0  0  0  0  0  0  0
   22.2896  -25.3055   24.0640 C   0  0  0  0  0  0  0  0  0  0  0  0
   19.0678  -26.2229   25.3351 O   0  0  0  0  0  0  0  0  0  0  0  0
   18.2661  -26.3361   24.1605 C   0  0  1  0  0  0  0  0  0  0  0  0
   17.4793  -27.6469   24.1873 C   0  0  0  0  0  0  0  0  0  0  0  0
   17.3641  -25.1067   24.1593 C   0  0  1  0  0  0  0  0  0  0  0  0
   22.6157  -26.2218   26.2571 C   0  0  0  0  0  0  0  0  0  0  0  0
   23.1444  -25.6822   25.1086 C   0  0  0  0  0  0  0  0  0  0  0  0
   20.5535  -29.7118   29.7249 C   0  0  0  0  0  0  0  0  0  0  0  0
   22.0340  -29.9596   29.5329 C   0  0  0  0  0  0  0  0  0  0  0  0
   19.9187  -30.2595   30.8327 C   0  0  0  0  0  0  0  0  0  0  0  0
   18.5648  -30.0396   31.0549 C   0  0  0  0  0  0  0  0  0  0  0  0
   18.4114  -28.7573   29.1428 C   0  0  0  0  0  0  0  0  0  0  0  0
   23.7121  -23.5296   21.3768 N   0  0  0  0  0  0  0  0  0  0  0  0
   24.2046  -23.0801   23.5861 O   0  0  0  0  0  0  0  0  0  0  0  0
   22.7351  -24.7297   22.8882 N   0  0  0  0  0  0  0  0  0  0  0  0
   22.2954  -25.1464   21.6371 N   0  0  0  0  0  0  0  0  0  0  0  0
   22.5961  -24.6187   19.2885 C   0  0  0  0  0  0  0  0  0  0  0  0
   21.4448  -25.4057   19.0263 O   0  0  0  0  0  0  0  0  0  0  0  0
   20.9857  -25.5053   24.1871 N   0  0  0  0  0  0  0  0  0  0  0  0
   20.4199  -26.0458   25.2681 C   0  0  0  0  0  0  0  0  0  0  0  0
   16.0404  -25.5218   24.2386 F   0  0  0  0  0  0  0  0  0  0  0  0
   17.6692  -24.3492   25.2651 F   0  0  0  0  0  0  0  0  0  0  0  0
   17.5453  -24.3790   22.9986 F   0  0  0  0  0  0  0  0  0  0  0  0
   21.2286  -26.4447   26.3742 C   0  0  0  0  0  0  0  0  0  0  0  0
   24.4725  -25.5261   25.0546 F   0  0  0  0  0  0  0  0  0  0  0  0
   20.6932  -27.0047   27.6412 C   0  0  0  0  0  0  0  0  0  0  0  0
   20.4903  -26.2531   28.5817 O   0  0  0  0  0  0  0  0  0  0  0  0
   20.3313  -28.3230   27.7141 N   0  0  0  0  0  0  0  0  0  0  0  0
   19.7689  -28.9429   28.8372 C   0  0  0  0  0  0  0  0  0  0  0  0
   17.8514  -29.2974   30.2187 N   0  0  0  0  0  0  0  0  0  0  0  0
   17.4351  -27.8124   28.0940 Cl  0  0  0  0  0  0  0  0  0  0  0  0
   23.9623  -20.9589   22.0474 H   0  0  0  0  0  0  0  0  0  0  0  0
   24.7127  -20.4008   20.5138 H   0  0  0  0  0  0  0  0  0  0  0  0
   23.0297  -21.0289   20.5138 H   0  0  0  0  0  0  0  0  0  0  0  0
   24.5522  -22.7396   19.6260 H   0  0  0  0  0  0  0  0  0  0  0  0
   25.5764  -22.6192   21.1055 H   0  0  0  0  0  0  0  0  0  0  0  0
   18.8638  -26.3672   23.2376 H   0  0  0  0  0  0  0  0  0  0  0  0
   17.3000  -27.9456   25.2307 H   0  0  0  0  0  0  0  0  0  0  0  0
   16.5159  -27.5068   23.6753 H   0  0  0  0  0  0  0  0  0  0  0  0
   18.0560  -28.4312   23.6753 H   0  0  0  0  0  0  0  0  0  0  0  0
   23.2816  -26.4822   27.0930 H   0  0  0  0  0  0  0  0  0  0  0  0
   22.5225  -30.0414   30.5150 H   0  0  0  0  0  0  0  0  0  0  0  0
   22.1795  -30.8946   28.9720 H   0  0  0  0  0  0  0  0  0  0  0  0
   22.4761  -29.1230   28.9720 H   0  0  0  0  0  0  0  0  0  0  0  0
   20.4939  -30.8736   31.5412 H   0  0  0  0  0  0  0  0  0  0  0  0
   18.0788  -30.4864   31.9349 H   0  0  0  0  0  0  0  0  0  0  0  0
   22.4522  -23.6285   18.8316 H   0  0  0  0  0  0  0  0  0  0  0  0
   23.4575  -25.1538   18.8625 H   0  0  0  0  0  0  0  0  0  0  0  0
   21.0347  -25.6861   19.8826 H   0  0  0  0  0  0  0  0  0  0  0  0
   20.4844  -28.9043   26.8778 H   0  0  0  0  0  0  0  0  0  0  0  0
  1  2  1  0
  2 17  1  0
  3 17  1  0
  3 18  2  0
  3 19  1  0
  4 17  1  0
  4 20  2  0
  4 21  1  0
  5 11  1  0
  5 19  1  0
  5 23  2  0
  6  7  1  0
  6 24  1  0
  7  8  1  0
  7  9  1  0
  9 25  1  1
  9 26  1  0
  9 27  1  0
 10 11  2  0
 10 28  1  0
 11 29  1  0
 12 13  1  0
 12 14  2  0
 12 33  1  0
 14 15  1  0
 15 34  2  0
 16 33  2  0
 16 34  1  0
 16 35  1  0
 19 20  1  0
 21 22  1  0
 23 24  1  0
 24 28  2  0
 28 30  1  0
 30 31  2  0
 30 32  1  0
 32 33  1  0
  1 36  1  0
  1 37  1  0
  1 38  1  0
  2 39  1  0
  2 40  1  0
  7 41  1  6
  8 42  1  0
  8 43  1  0
  8 44  1  0
 10 45  1  0
 13 46  1  0
 13 47  1  0
 13 48  1  0
 14 49  1  0
 15 50  1  0
 21 51  1  0
 21 52  1  0
 22 53  1  0
 32 54  1  0
M  END
>  <filename_input>  (19) 
8DHG_T78_docked.sdf

>  <pdb_id>  (19) 
8DHG_T78

>  <pose_rank>  (19) 
18

>  <num_atoms_heavy>  (19) 
35

>  <num_torsions>  (19) 
7

>  <pose>  (19) 
[23.607607574576146, -23.70970907238601, 22.709590021552692, -2.7275637932140446, -1.1389642882554905, 1.3332257291619258, 1.5810104526370876, 9.642574839999963, -2.8728854841277105, 2.4166853223451032, 0.6492517603565037, 0.4398142664098246, -3.0782106811059258]

>  <energy>  (19) 
-407.1909324553643

>  <inter_energy>  (19) 
-404.63843268356806

>  <intra_energy>  (19) 
10.111275478991292

>  <rmsd>  (19) 
9.11559

>  <sdf_rank>  (19) 
0

$$$$

     RDKit          3D

 54 56  0  0  0  0  0  0  0  0999 V2000
   24.0728  -22.3007   19.9773 C   0  0  0  0  0  0  0  0  0  0  0  0
   24.7608  -23.2583   20.9438 C   0  0  0  0  0  0  0  0  0  0  0  0
   23.7150  -24.2610   22.9838 C   0  0  0  0  0  0  0  0  0  0  0  0
   22.7257  -24.7516   21.0705 C   0  0  0  0  0  0  0  0  0  0  0  0
   22.1755  -25.5851   24.3961 C   0  0  0  0  0  0  0  0  0  0  0  0
   18.9173  -25.8441   25.8638 O   0  0  0  0  0  0  0  0  0  0  0  0
   18.0463  -25.6641   24.7484 C   0  0  1  0  0  0  0  0  0  0  0  0
   18.0533  -26.9161   23.8706 C   0  0  0  0  0  0  0  0  0  0  0  0
   16.6738  -25.3683   25.3430 C   0  0  1  0  0  0  0  0  0  0  0  0
   22.4351  -26.6160   26.5467 C   0  0  0  0  0  0  0  0  0  0  0  0
   22.9941  -26.1646   25.3748 C   0  0  0  0  0  0  0  0  0  0  0  0
   20.3718  -29.3826   30.4260 C   0  0  0  0  0  0  0  0  0  0  0  0
   21.8849  -29.3998   30.4054 C   0  0  0  0  0  0  0  0  0  0  0  0
   19.7095  -29.8728   31.5446 C   0  0  0  0  0  0  0  0  0  0  0  0
   18.3216  -29.8572   31.6105 C   0  0  0  0  0  0  0  0  0  0  0  0
   18.1866  -28.8942   29.5181 C   0  0  0  0  0  0  0  0  0  0  0  0
   23.7727  -24.0662   21.6502 N   0  0  0  0  0  0  0  0  0  0  0  0
   24.4846  -23.7978   23.8289 O   0  0  0  0  0  0  0  0  0  0  0  0
   22.6592  -25.0801   23.2030 N   0  0  0  0  0  0  0  0  0  0  0  0
   22.0650  -25.3568   21.9772 N   0  0  0  0  0  0  0  0  0  0  0  0
   22.3249  -24.8324   19.6230 C   0  0  0  0  0  0  0  0  0  0  0  0
   21.2730  -25.7525   19.3772 O   0  0  0  0  0  0  0  0  0  0  0  0
   20.8690  -25.5104   24.6026 N   0  0  0  0  0  0  0  0  0  0  0  0
   20.2695  -25.9528   25.7097 C   0  0  0  0  0  0  0  0  0  0  0  0
   15.9971  -26.5679   25.5273 F   0  0  0  0  0  0  0  0  0  0  0  0
   16.8560  -24.7583   26.5612 F   0  0  0  0  0  0  0  0  0  0  0  0
   15.9453  -24.5598   24.4914 F   0  0  0  0  0  0  0  0  0  0  0  0
   21.0422  -26.5462   26.7524 C   0  0  0  0  0  0  0  0  0  0  0  0
   24.3193  -26.2893   25.2349 F   0  0  0  0  0  0  0  0  0  0  0  0
   20.4797  -27.0198   28.0428 C   0  0  0  0  0  0  0  0  0  0  0  0
   20.2138  -26.2013   28.9088 O   0  0  0  0  0  0  0  0  0  0  0  0
   20.1637  -28.3408   28.2141 N   0  0  0  0  0  0  0  0  0  0  0  0
   19.5819  -28.8871   29.3652 C   0  0  0  0  0  0  0  0  0  0  0  0
   17.6001  -29.3686   30.6106 N   0  0  0  0  0  0  0  0  0  0  0  0
   17.1994  -28.2814   28.2547 Cl  0  0  0  0  0  0  0  0  0  0  0  0
   23.5237  -21.5366   20.5470 H   0  0  0  0  0  0  0  0  0  0  0  0
   24.8285  -21.8133   19.3439 H   0  0  0  0  0  0  0  0  0  0  0  0
   23.3697  -22.8615   19.3439 H   0  0  0  0  0  0  0  0  0  0  0  0
   25.4340  -23.9207   20.3797 H   0  0  0  0  0  0  0  0  0  0  0  0
   25.3336  -22.6731   21.6782 H   0  0  0  0  0  0  0  0  0  0  0  0
   18.3594  -24.8391   24.0917 H   0  0  0  0  0  0  0  0  0  0  0  0
   18.0584  -27.8117   24.5093 H   0  0  0  0  0  0  0  0  0  0  0  0
   17.1552  -26.9237   23.2355 H   0  0  0  0  0  0  0  0  0  0  0  0
   18.9515  -26.9136   23.2355 H   0  0  0  0  0  0  0  0  0  0  0  0
   23.0812  -27.0359   27.3318 H   0  0  0  0  0  0  0  0  0  0  0  0
   22.2657  -29.4041   31.4374 H   0  0  0  0  0  0  0  0  0  0  0  0
   22.2342  -30.3020   29.8819 H   0  0  0  0  0  0  0  0  0  0  0  0
   22.2546  -28.5058   29.8819 H   0  0  0  0  0  0  0  0  0  0  0  0
   20.2899  -30.2774   32.3869 H   0  0  0  0  0  0  0  0  0  0  0  0
   17.8153  -30.2549   32.5024 H   0  0  0  0  0  0  0  0  0  0  0  0
   21.9979  -23.8343   19.2961 H   0  0  0  0  0  0  0  0  0  0  0  0
   23.2029  -25.1879   19.0637 H   0  0  0  0  0  0  0  0  0  0  0  0
   20.9067  -26.0729   20.2393 H   0  0  0  0  0  0  0  0  0  0  0  0
   20.3698  -28.9831   27.4357 H   0  0  0  0  0  0  0  0  0  0  0  0
  1  2  1  0
  2 17  1  0
  3 17  1  0
  3 18  2  0
  3 19  1  0
  4 17  1  0
  4 20  2  0
  4 21  1  0
  5 11  1  0
  5 19  1  0
  5 23  2  0
  6  7  1  0
  6 24  1  0
  7  8  1  0
  7  9  1  0
  9 25  1  1
  9 26  1  0
  9 27  1  0
 10 11  2  0
 10 28  1  0
 11 29  1  0
 12 13  1  0
 12 14  2  0
 12 33  1  0
 14 15  1  0
 15 34  2  0
 16 33  2  0
 16 34  1  0
 16 35  1  0
 19 20  1  0
 21 22  1  0
 23 24  1  0
 24 28  2  0
 28 30  1  0
 30 31  2  0
 30 32  1  0
 32 33  1  0
  1 36  1  0
  1 37  1  0
  1 38  1  0
  2 39  1  0
  2 40  1  0
  7 41  1  6
  8 42  1  0
  8 43  1  0
  8 44  1  0
 10 45  1  0
 13 46  1  0
 13 47  1  0
 13 48  1  0
 14 49  1  0
 15 50  1  0
 21 51  1  0
 21 52  1  0
 22 53  1  0
 32 54  1  0
M  END
>  <filename_input>  (20) 
8DHG_T78_docked.sdf

>  <pdb_id>  (20) 
8DHG_T78

>  <pose_rank>  (20) 
19

>  <num_atoms_heavy>  (20) 
35

>  <num_torsions>  (20) 
7

>  <pose>  (20) 
[23.714990846149238, -24.260991424676817, 22.98377074464946, -2.6747950208122404, -0.8281797217020745, 1.3582829891547459, 1.8720194088034197, 9.79707883821716, -3.9503132772237888, 2.0482716902178657, 0.5776445790659606, -0.5508457027518243, -2.5905251251180945]

>  <energy>  (20) 
-378.6803455999002

>  <inter_energy>  (20) 
-402.73662314680064

>  <intra_energy>  (20) 
24.424962368783333

>  <rmsd>  (20) 
9.41565

>  <sdf_rank>  (20) 
0

$$$$

     RDKit          3D

 54 56  0  0  0  0  0  0  0  0999 V2000
   32.5216  -18.4113   32.4796 C   0  0  0  0  0  0  0  0  0  0  0  0
   32.3010  -17.1578   31.6402 C   0  0  0  0  0  0  0  0  0  0  0  0
   29.8591  -16.6121   31.6439 C   0  0  0  0  0  0  0  0  0  0  0  0
   30.5889  -17.6894   29.8587 C   0  0  0  0  0  0  0  0  0  0  0  0
   27.5004  -16.4987   30.9078 C   0  0  0  0  0  0  0  0  0  0  0  0
   25.1075  -14.9851   28.7123 O   0  0  0  0  0  0  0  0  0  0  0  0
   25.9055  -14.6689   27.5728 C   0  0  1  0  0  0  0  0  0  0  0  0
   26.8010  -15.8554   27.2146 C   0  0  0  0  0  0  0  0  0  0  0  0
   24.9183  -14.3194   26.4646 C   0  0  1  0  0  0  0  0  0  0  0  0
   25.4359  -16.3090   32.1148 C   0  0  0  0  0  0  0  0  0  0  0  0
   26.7499  -16.7105   32.0721 C   0  0  0  0  0  0  0  0  0  0  0  0
   20.6570  -14.4009   29.4750 C   0  0  0  0  0  0  0  0  0  0  0  0
   21.5795  -13.5377   28.6419 C   0  0  0  0  0  0  0  0  0  0  0  0
   19.2957  -14.1235   29.4754 C   0  0  0  0  0  0  0  0  0  0  0  0
   18.4132  -14.9041   30.2122 C   0  0  0  0  0  0  0  0  0  0  0  0
   20.1426  -16.2352   30.9612 C   0  0  0  0  0  0  0  0  0  0  0  0
   30.9561  -17.1534   31.0752 N   0  0  0  0  0  0  0  0  0  0  0  0
   29.8031  -16.0368   32.7334 O   0  0  0  0  0  0  0  0  0  0  0  0
   28.8341  -16.8453   30.7903 N   0  0  0  0  0  0  0  0  0  0  0  0
   29.3383  -17.5170   29.6827 N   0  0  0  0  0  0  0  0  0  0  0  0
   31.4388  -18.3742   28.8237 C   0  0  0  0  0  0  0  0  0  0  0  0
   30.8210  -18.4582   27.5491 O   0  0  0  0  0  0  0  0  0  0  0  0
   26.9217  -15.9429   29.8536 N   0  0  0  0  0  0  0  0  0  0  0  0
   25.6450  -15.5552   29.8304 C   0  0  0  0  0  0  0  0  0  0  0  0
   24.0362  -15.3802   26.2989 F   0  0  0  0  0  0  0  0  0  0  0  0
   24.2168  -13.2022   26.8511 F   0  0  0  0  0  0  0  0  0  0  0  0
   25.5886  -14.0938   25.2775 F   0  0  0  0  0  0  0  0  0  0  0  0
   24.8234  -15.7317   30.9838 C   0  0  0  0  0  0  0  0  0  0  0  0
   27.2579  -17.2781   33.1725 F   0  0  0  0  0  0  0  0  0  0  0  0
   23.4097  -15.2866   31.0783 C   0  0  0  0  0  0  0  0  0  0  0  0
   23.1346  -14.3369   31.7946 O   0  0  0  0  0  0  0  0  0  0  0  0
   22.4507  -15.8637   30.2900 N   0  0  0  0  0  0  0  0  0  0  0  0
   21.1015  -15.4889   30.2582 C   0  0  0  0  0  0  0  0  0  0  0  0
   18.8502  -15.9337   30.9249 N   0  0  0  0  0  0  0  0  0  0  0  0
   20.6484  -17.5751   31.9072 Cl  0  0  0  0  0  0  0  0  0  0  0  0
   32.4757  -18.1504   33.5472 H   0  0  0  0  0  0  0  0  0  0  0  0
   31.7396  -19.1496   32.2486 H   0  0  0  0  0  0  0  0  0  0  0  0
   33.5087  -18.8383   32.2486 H   0  0  0  0  0  0  0  0  0  0  0  0
   32.4301  -16.2691   32.2755 H   0  0  0  0  0  0  0  0  0  0  0  0
   33.0327  -17.1454   30.8190 H   0  0  0  0  0  0  0  0  0  0  0  0
   26.5879  -13.8248   27.7510 H   0  0  0  0  0  0  0  0  0  0  0  0
   27.1621  -16.3338   28.1369 H   0  0  0  0  0  0  0  0  0  0  0  0
   26.2257  -16.5841   26.6246 H   0  0  0  0  0  0  0  0  0  0  0  0
   27.6594  -15.5019   26.6246 H   0  0  0  0  0  0  0  0  0  0  0  0
   24.8565  -16.4394   33.0407 H   0  0  0  0  0  0  0  0  0  0  0  0
   22.2199  -12.9384   29.3058 H   0  0  0  0  0  0  0  0  0  0  0  0
   22.2083  -14.1794   28.0071 H   0  0  0  0  0  0  0  0  0  0  0  0
   20.9809  -12.8678   28.0071 H   0  0  0  0  0  0  0  0  0  0  0  0
   18.9125  -13.2772   28.8864 H   0  0  0  0  0  0  0  0  0  0  0  0
   17.3395  -14.6653   30.2042 H   0  0  0  0  0  0  0  0  0  0  0  0
   32.3790  -17.8130   28.7186 H   0  0  0  0  0  0  0  0  0  0  0  0
   31.6044  -19.4046   29.1714 H   0  0  0  0  0  0  0  0  0  0  0  0
   29.8465  -18.5907   27.6627 H   0  0  0  0  0  0  0  0  0  0  0  0
   22.7442  -16.6336   29.6719 H   0  0  0  0  0  0  0  0  0  0  0  0
  1  2  1  0
  2 17  1  0
  3 17  1  0
  3 18  2  0
  3 19  1  0
  4 17  1  0
  4 20  2  0
  4 21  1  0
  5 11  1  0
  5 19  1  0
  5 23  2  0
  6  7  1  0
  6 24  1  0
  7  8  1  0
  7  9  1  0
  9 25  1  6
  9 26  1  0
  9 27  1  0
 10 11  2  0
 10 28  1  0
 11 29  1  0
 12 13  1  0
 12 14  2  0
 12 33  1  0
 14 15  1  0
 15 34  2  0
 16 33  2  0
 16 34  1  0
 16 35  1  0
 19 20  1  0
 21 22  1  0
 23 24  1  0
 24 28  2  0
 28 30  1  0
 30 31  2  0
 30 32  1  0
 32 33  1  0
  1 36  1  0
  1 37  1  0
  1 38  1  0
  2 39  1  0
  2 40  1  0
  7 41  1  1
  8 42  1  0
  8 43  1  0
  8 44  1  0
 10 45  1  0
 13 46  1  0
 13 47  1  0
 13 48  1  0
 14 49  1  0
 15 50  1  0
 21 51  1  0
 21 52  1  0
 22 53  1  0
 32 54  1  0
M  END
>  <filename_input>  (21) 
8DHG_T78_docked.sdf

>  <pdb_id>  (21) 
8DHG_T78

>  <pose_rank>  (21) 
20

>  <num_atoms_heavy>  (21) 
35

>  <num_torsions>  (21) 
7

>  <pose>  (21) 
[29.8591180312719, -16.612088871732638, 31.64386907687444, -3.384319253628128, 0.2621107879019598, -0.11777482409928834, 1.3305523268468646, 0.2550077190427373, -0.08745531813070469, -3.826381709094718, 0.12660784109183748, -0.8933247781407501, -1.991408615305839]

>  <energy>  (21) 
-208.5698949148333

>  <inter_energy>  (21) 
-256.2948872430298

>  <intra_energy>  (21) 
40.86232771365036

>  <rmsd>  (21) 
11.1025

>  <sdf_rank>  (21) 
0

$$$$

     RDKit          3D

 54 56  0  0  0  0  0  0  0  0999 V2000
   22.1225  -21.3768   23.4934 C   0  0  0  0  0  0  0  0  0  0  0  0
   23.4075  -22.0945   23.0957 C   0  0  0  0  0  0  0  0  0  0  0  0
   23.7903  -23.9105   24.7739 C   0  0  0  0  0  0  0  0  0  0  0  0
   22.9299  -24.5638   22.8471 C   0  0  0  0  0  0  0  0  0  0  0  0
   23.8721  -26.1694   25.7782 C   0  0  0  0  0  0  0  0  0  0  0  0
   22.0346  -28.8780   27.2356 O   0  0  0  0  0  0  0  0  0  0  0  0
   20.6918  -28.6086   26.8364 C   0  0  1  0  0  0  0  0  0  0  0  0
   20.0595  -29.8670   26.2411 C   0  0  0  0  0  0  0  0  0  0  0  0
   19.9778  -28.1288   28.0953 C   0  0  1  0  0  0  0  0  0  0  0  0
   25.2450  -27.1278   27.4964 C   0  0  0  0  0  0  0  0  0  0  0  0
   25.0753  -26.2004   26.4960 C   0  0  0  0  0  0  0  0  0  0  0  0
   25.3903  -32.0484   29.9334 C   0  0  0  0  0  0  0  0  0  0  0  0
   26.6421  -31.8376   29.1096 C   0  0  0  0  0  0  0  0  0  0  0  0
   25.4125  -32.9816   30.9624 C   0  0  0  0  0  0  0  0  0  0  0  0
   24.2897  -33.1912   31.7539 C   0  0  0  0  0  0  0  0  0  0  0  0
   23.1037  -31.6023   30.5739 C   0  0  0  0  0  0  0  0  0  0  0  0
   23.3847  -23.4762   23.5629 N   0  0  0  0  0  0  0  0  0  0  0  0
   24.2519  -23.2206   25.6862 O   0  0  0  0  0  0  0  0  0  0  0  0
   23.6083  -25.2523   24.7773 N   0  0  0  0  0  0  0  0  0  0  0  0
   23.0614  -25.6173   23.5526 N   0  0  0  0  0  0  0  0  0  0  0  0
   22.3430  -24.6158   21.4631 C   0  0  0  0  0  0  0  0  0  0  0  0
   23.1820  -25.2580   20.5160 O   0  0  0  0  0  0  0  0  0  0  0  0
   22.9278  -27.0567   26.0540 N   0  0  0  0  0  0  0  0  0  0  0  0
   23.0467  -27.9932   26.9972 C   0  0  0  0  0  0  0  0  0  0  0  0
   19.1090  -29.1244   28.5250 F   0  0  0  0  0  0  0  0  0  0  0  0
   20.9245  -27.9026   29.0660 F   0  0  0  0  0  0  0  0  0  0  0  0
   19.2588  -26.9787   27.8311 F   0  0  0  0  0  0  0  0  0  0  0  0
   24.2410  -28.0779   27.7737 C   0  0  0  0  0  0  0  0  0  0  0  0
   26.0815  -25.3481   26.2674 F   0  0  0  0  0  0  0  0  0  0  0  0
   24.4511  -29.0461   28.8801 C   0  0  0  0  0  0  0  0  0  0  0  0
   24.8635  -28.6375   29.9541 O   0  0  0  0  0  0  0  0  0  0  0  0
   24.0835  -30.3562   28.7293 N   0  0  0  0  0  0  0  0  0  0  0  0
   24.1867  -31.3409   29.7201 C   0  0  0  0  0  0  0  0  0  0  0  0
   23.1760  -32.5009   31.5485 N   0  0  0  0  0  0  0  0  0  0  0  0
   21.6329  -30.7454   30.3527 Cl  0  0  0  0  0  0  0  0  0  0  0  0
   22.0497  -21.3362   24.5902 H   0  0  0  0  0  0  0  0  0  0  0  0
   22.1333  -20.3542   23.0884 H   0  0  0  0  0  0  0  0  0  0  0  0
   21.2575  -21.9225   23.0884 H   0  0  0  0  0  0  0  0  0  0  0  0
   23.5041  -22.0840   22.0000 H   0  0  0  0  0  0  0  0  0  0  0  0
   24.2620  -21.5767   23.5559 H   0  0  0  0  0  0  0  0  0  0  0  0
   20.6264  -27.8426   26.0497 H   0  0  0  0  0  0  0  0  0  0  0  0
   19.7266  -30.5296   27.0535 H   0  0  0  0  0  0  0  0  0  0  0  0
   19.1960  -29.5852   25.6207 H   0  0  0  0  0  0  0  0  0  0  0  0
   20.8011  -30.3916   25.6207 H   0  0  0  0  0  0  0  0  0  0  0  0
   26.1733  -27.1286   28.0865 H   0  0  0  0  0  0  0  0  0  0  0  0
   27.5022  -31.6927   29.7799 H   0  0  0  0  0  0  0  0  0  0  0  0
   26.8162  -32.7191   28.4750 H   0  0  0  0  0  0  0  0  0  0  0  0
   26.5179  -30.9477   28.4750 H   0  0  0  0  0  0  0  0  0  0  0  0
   26.3283  -33.5606   31.1525 H   0  0  0  0  0  0  0  0  0  0  0  0
   24.3251  -33.9385   32.5604 H   0  0  0  0  0  0  0  0  0  0  0  0
   21.3892  -25.1617   21.5098 H   0  0  0  0  0  0  0  0  0  0  0  0
   22.2130  -23.5763   21.1277 H   0  0  0  0  0  0  0  0  0  0  0  0
   23.8719  -25.7860   20.9907 H   0  0  0  0  0  0  0  0  0  0  0  0
   23.7012  -30.6399   27.8159 H   0  0  0  0  0  0  0  0  0  0  0  0
  1  2  1  0
  2 17  1  0
  3 17  1  0
  3 18  2  0
  3 19  1  0
  4 17  1  0
  4 20  2  0
  4 21  1  0
  5 11  1  0
  5 19  1  0
  5 23  2  0
  6  7  1  0
  6 24  1  0
  7  8  1  0
  7  9  1  0
  9 25  1  1
  9 26  1  0
  9 27  1  0
 10 11  2  0
 10 28  1  0
 11 29  1  0
 12 13  1  0
 12 14  2  0
 12 33  1  0
 14 15  1  0
 15 34  2  0
 16 33  2  0
 16 34  1  0
 16 35  1  0
 19 20  1  0
 21 22  1  0
 23 24  1  0
 24 28  2  0
 28 30  1  0
 30 31  2  0
 30 32  1  0
 32 33  1  0
  1 36  1  0
  1 37  1  0
  1 38  1  0
  2 39  1  0
  2 40  1  0
  7 41  1  6
  8 42  1  0
  8 43  1  0
  8 44  1  0
 10 45  1  0
 13 46  1  0
 13 47  1  0
 13 48  1  0
 14 49  1  0
 15 50  1  0
 21 51  1  0
 21 52  1  0
 22 53  1  0
 32 54  1  0
M  END
>  <filename_input>  (22) 
8DHG_T78_docked.sdf

>  <pdb_id>  (22) 
8DHG_T78

>  <pose_rank>  (22) 
21

>  <num_atoms_heavy>  (22) 
35

>  <num_torsions>  (22) 
7

>  <pose>  (22) 
[23.790314324069247, -23.910464986067527, 24.773937889272972, -18.58036580248662, -17.395304029001355, 12.347384199690598, 0.9561179665867784, 9.896728160032787, -3.1972704196764075, 0.9578421750442512, -0.13097176973167926, 0.6885002933158331, -2.9048884006654467]

>  <energy>  (22) 
-375.8782443776548

>  <inter_energy>  (22) 
-395.4285869721904

>  <intra_energy>  (22) 
18.580613431537593

>  <rmsd>  (22) 
9.59019

>  <sdf_rank>  (22) 
0

$$$$

     RDKit          3D

 54 56  0  0  0  0  0  0  0  0999 V2000
   29.8406  -15.5166   12.9745 C   0  0  0  0  0  0  0  0  0  0  0  0
   29.6038  -16.3240   14.2459 C   0  0  0  0  0  0  0  0  0  0  0  0
   27.1330  -16.1849   14.6153 C   0  0  0  0  0  0  0  0  0  0  0  0
   28.3709  -15.0132   16.0206 C   0  0  0  0  0  0  0  0  0  0  0  0
   24.9618  -15.5149   15.5925 C   0  0  0  0  0  0  0  0  0  0  0  0
   22.6520  -15.8690   18.3086 O   0  0  0  0  0  0  0  0  0  0  0  0
   23.2419  -15.2112   19.4286 C   0  0  1  0  0  0  0  0  0  0  0  0
   24.7514  -15.4541   19.4437 C   0  0  0  0  0  0  0  0  0  0  0  0
   22.8831  -13.7373   19.2747 C   0  0  1  0  0  0  0  0  0  0  0  0
   22.7485  -15.3779   14.6771 C   0  0  0  0  0  0  0  0  0  0  0  0
   24.1103  -15.3430   14.4929 C   0  0  0  0  0  0  0  0  0  0  0  0
   18.0846  -14.6918   17.9400 C   0  0  0  0  0  0  0  0  0  0  0  0
   18.9106  -15.0854   19.1454 C   0  0  0  0  0  0  0  0  0  0  0  0
   16.7062  -14.5835   18.0765 C   0  0  0  0  0  0  0  0  0  0  0  0
   15.9145  -14.2062   16.9986 C   0  0  0  0  0  0  0  0  0  0  0  0
   17.7693  -14.0303   15.6376 C   0  0  0  0  0  0  0  0  0  0  0  0
   28.4031  -15.8566   14.9298 N   0  0  0  0  0  0  0  0  0  0  0  0
   26.7702  -16.9268   13.6993 O   0  0  0  0  0  0  0  0  0  0  0  0
   26.3410  -15.5223   15.4913 N   0  0  0  0  0  0  0  0  0  0  0  0
   27.1591  -14.8060   16.3573 N   0  0  0  0  0  0  0  0  0  0  0  0
   29.5119  -14.3916   16.7782 C   0  0  0  0  0  0  0  0  0  0  0  0
   29.2174  -13.0997   17.2859 O   0  0  0  0  0  0  0  0  0  0  0  0
   24.4400  -15.6765   16.7995 N   0  0  0  0  0  0  0  0  0  0  0  0
   23.1276  -15.6954   17.0406 C   0  0  0  0  0  0  0  0  0  0  0  0
   21.5832  -13.6402   18.7933 F   0  0  0  0  0  0  0  0  0  0  0  0
   22.9534  -13.1466   20.5139 F   0  0  0  0  0  0  0  0  0  0  0  0
   23.7455  -13.1231   18.3867 F   0  0  0  0  0  0  0  0  0  0  0  0
   22.2014  -15.5356   15.9668 C   0  0  0  0  0  0  0  0  0  0  0  0
   24.5599  -15.1604   13.2456 F   0  0  0  0  0  0  0  0  0  0  0  0
   20.7254  -15.5951   16.1211 C   0  0  0  0  0  0  0  0  0  0  0  0
   20.1657  -16.6777   16.0482 O   0  0  0  0  0  0  0  0  0  0  0  0
   20.0202  -14.4683   16.4485 N   0  0  0  0  0  0  0  0  0  0  0  0
   18.6379  -14.4191   16.6695 C   0  0  0  0  0  0  0  0  0  0  0  0
   16.4576  -13.9353   15.8193 N   0  0  0  0  0  0  0  0  0  0  0  0
   18.4128  -13.6737   14.0868 Cl  0  0  0  0  0  0  0  0  0  0  0  0
   30.1410  -14.4925   13.2412 H   0  0  0  0  0  0  0  0  0  0  0  0
   30.6377  -15.9901   12.3826 H   0  0  0  0  0  0  0  0  0  0  0  0
   28.9140  -15.4845   12.3826 H   0  0  0  0  0  0  0  0  0  0  0  0
   29.4814  -17.3852   13.9835 H   0  0  0  0  0  0  0  0  0  0  0  0
   30.4675  -16.1968   14.9150 H   0  0  0  0  0  0  0  0  0  0  0  0
   22.8700  -15.5921   20.3912 H   0  0  0  0  0  0  0  0  0  0  0  0
   25.1033  -15.5107   20.4844 H   0  0  0  0  0  0  0  0  0  0  0  0
   24.9758  -16.3999   18.9288 H   0  0  0  0  0  0  0  0  0  0  0  0
   25.2611  -14.6264   18.9288 H   0  0  0  0  0  0  0  0  0  0  0  0
   22.0790  -15.2818   13.8096 H   0  0  0  0  0  0  0  0  0  0  0  0
   18.3651  -14.8254   20.0645 H   0  0  0  0  0  0  0  0  0  0  0  0
   19.0972  -16.1693   19.1239 H   0  0  0  0  0  0  0  0  0  0  0  0
   19.8700  -14.5478   19.1239 H   0  0  0  0  0  0  0  0  0  0  0  0
   16.2368  -14.7985   19.0478 H   0  0  0  0  0  0  0  0  0  0  0  0
   14.8243  -14.1314   17.1249 H   0  0  0  0  0  0  0  0  0  0  0  0
   29.7672  -15.0478   17.6233 H   0  0  0  0  0  0  0  0  0  0  0  0
   30.3465  -14.2785   16.0707 H   0  0  0  0  0  0  0  0  0  0  0  0
   29.2232  -13.1249   18.2756 H   0  0  0  0  0  0  0  0  0  0  0  0
   20.5471  -13.5880   16.5393 H   0  0  0  0  0  0  0  0  0  0  0  0
  1  2  1  0
  2 17  1  0
  3 17  1  0
  3 18  2  0
  3 19  1  0
  4 17  1  0
  4 20  2  0
  4 21  1  0
  5 11  1  0
  5 19  1  0
  5 23  2  0
  6  7  1  0
  6 24  1  0
  7  8  1  0
  7  9  1  0
  9 25  1  6
  9 26  1  0
  9 27  1  0
 10 11  2  0
 10 28  1  0
 11 29  1  0
 12 13  1  0
 12 14  2  0
 12 33  1  0
 14 15  1  0
 15 34  2  0
 16 33  2  0
 16 34  1  0
 16 35  1  0
 19 20  1  0
 21 22  1  0
 23 24  1  0
 24 28  2  0
 28 30  1  0
 30 31  2  0
 30 32  1  0
 32 33  1  0
  1 36  1  0
  1 37  1  0
  1 38  1  0
  2 39  1  0
  2 40  1  0
  7 41  1  1
  8 42  1  0
  8 43  1  0
  8 44  1  0
 10 45  1  0
 13 46  1  0
 13 47  1  0
 13 48  1  0
 14 49  1  0
 15 50  1  0
 21 51  1  0
 21 52  1  0
 22 53  1  0
 32 54  1  0
M  END
>  <filename_input>  (23) 
8DHG_T78_docked.sdf

>  <pdb_id>  (23) 
8DHG_T78

>  <pose_rank>  (23) 
22

>  <num_atoms_heavy>  (23) 
35

>  <num_torsions>  (23) 
7

>  <pose>  (23) 
[27.132987303860443, -16.1849162113345, 14.615338001595916, 4.951905954111997, -2.742829404078464, 1.0574947226105298, 1.7022427810689815, 0.3169275286822362, -0.2658468054322422, 1.5756875113561537, 0.9637574414001739, 3.6645978419289977, -0.35015342806641]

>  <energy>  (23) 
-78.13625758843722

>  <inter_energy>  (23) 
-107.20378729123996

>  <intra_energy>  (23) 
52.916964590949874

>  <rmsd>  (23) 
11.495

>  <sdf_rank>  (23) 
0

$$$$

     RDKit          3D

 54 56  0  0  0  0  0  0  0  0999 V2000
   19.2503  -13.5494   19.5702 C   0  0  0  0  0  0  0  0  0  0  0  0
   19.6540  -15.0195   19.5791 C   0  0  0  0  0  0  0  0  0  0  0  0
   21.9859  -15.0947   18.6750 C   0  0  0  0  0  0  0  0  0  0  0  0
   20.4064  -15.7696   17.2858 C   0  0  0  0  0  0  0  0  0  0  0  0
   23.8571  -15.4333   17.0932 C   0  0  0  0  0  0  0  0  0  0  0  0
   25.9885  -17.7755   15.4174 O   0  0  0  0  0  0  0  0  0  0  0  0
   25.0606  -18.7402   14.9236 C   0  0  1  0  0  0  0  0  0  0  0  0
   24.2703  -18.1555   13.7525 C   0  0  0  0  0  0  0  0  0  0  0  0
   25.8993  -19.9492   14.5240 C   0  0  1  0  0  0  0  0  0  0  0  0
   26.0300  -14.4316   16.9188 C   0  0  0  0  0  0  0  0  0  0  0  0
   24.7164  -14.3489   17.3155 C   0  0  0  0  0  0  0  0  0  0  0  0
   30.5574  -14.5786   14.2798 C   0  0  0  0  0  0  0  0  0  0  0  0
   30.2388  -13.2940   15.0136 C   0  0  0  0  0  0  0  0  0  0  0  0
   31.8444  -14.7736   13.7944 C   0  0  0  0  0  0  0  0  0  0  0  0
   32.1821  -15.9474   13.1318 C   0  0  0  0  0  0  0  0  0  0  0  0
   30.0413  -16.7669   13.3949 C   0  0  0  0  0  0  0  0  0  0  0  0
   20.6553  -15.2789   18.5505 N   0  0  0  0  0  0  0  0  0  0  0  0
   22.5803  -14.6736   19.6702 O   0  0  0  0  0  0  0  0  0  0  0  0
   22.5311  -15.4444   17.4859 N   0  0  0  0  0  0  0  0  0  0  0  0
   21.5057  -15.8670   16.6479 N   0  0  0  0  0  0  0  0  0  0  0  0
   19.0990  -16.1709   16.6598 C   0  0  0  0  0  0  0  0  0  0  0  0
   18.0158  -16.1942   17.5762 O   0  0  0  0  0  0  0  0  0  0  0  0
   24.3168  -16.5106   16.4742 N   0  0  0  0  0  0  0  0  0  0  0  0
   25.5747  -16.6369   16.0470 C   0  0  0  0  0  0  0  0  0  0  0  0
   25.8810  -20.0698   13.1398 F   0  0  0  0  0  0  0  0  0  0  0  0
   27.1904  -19.7338   14.9437 F   0  0  0  0  0  0  0  0  0  0  0  0
   25.3832  -21.0998   15.0891 F   0  0  0  0  0  0  0  0  0  0  0  0
   26.5076  -15.5757   16.2476 C   0  0  0  0  0  0  0  0  0  0  0  0
   24.3243  -13.2214   17.9206 F   0  0  0  0  0  0  0  0  0  0  0  0
   27.9396  -15.6379   15.8590 C   0  0  0  0  0  0  0  0  0  0  0  0
   28.7737  -15.8988   16.7116 O   0  0  0  0  0  0  0  0  0  0  0  0
   28.3038  -15.5126   14.5453 N   0  0  0  0  0  0  0  0  0  0  0  0
   29.6145  -15.6070   14.0604 C   0  0  0  0  0  0  0  0  0  0  0  0
   31.2857  -16.9087   12.9544 N   0  0  0  0  0  0  0  0  0  0  0  0
   28.9244  -18.0429   13.1292 Cl  0  0  0  0  0  0  0  0  0  0  0  0
   19.1516  -13.1900   20.6052 H   0  0  0  0  0  0  0  0  0  0  0  0
   20.0201  -12.9609   19.0496 H   0  0  0  0  0  0  0  0  0  0  0  0
   18.2879  -13.4366   19.0496 H   0  0  0  0  0  0  0  0  0  0  0  0
   20.0719  -15.2745   20.5641 H   0  0  0  0  0  0  0  0  0  0  0  0
   18.7652  -15.6345   19.3744 H   0  0  0  0  0  0  0  0  0  0  0  0
   24.3097  -19.0319   15.6725 H   0  0  0  0  0  0  0  0  0  0  0  0
   23.4422  -17.5428   14.1385 H   0  0  0  0  0  0  0  0  0  0  0  0
   24.9342  -17.5294   13.1382 H   0  0  0  0  0  0  0  0  0  0  0  0
   23.8659  -18.9735   13.1382 H   0  0  0  0  0  0  0  0  0  0  0  0
   26.7153  -13.5968   17.1271 H   0  0  0  0  0  0  0  0  0  0  0  0
   30.2826  -13.4708   16.0984 H   0  0  0  0  0  0  0  0  0  0  0  0
   30.9728  -12.5225   14.7379 H   0  0  0  0  0  0  0  0  0  0  0  0
   29.2293  -12.9549   14.7379 H   0  0  0  0  0  0  0  0  0  0  0  0
   32.6040  -13.9907   13.9361 H   0  0  0  0  0  0  0  0  0  0  0  0
   33.2050  -16.0810   12.7498 H   0  0  0  0  0  0  0  0  0  0  0  0
   18.8621  -15.4548   15.8591 H   0  0  0  0  0  0  0  0  0  0  0  0
   19.2233  -17.1957   16.2799 H   0  0  0  0  0  0  0  0  0  0  0  0
   18.3666  -16.1866   18.5019 H   0  0  0  0  0  0  0  0  0  0  0  0
   27.5557  -15.3351   13.8600 H   0  0  0  0  0  0  0  0  0  0  0  0
  1  2  1  0
  2 17  1  0
  3 17  1  0
  3 18  2  0
  3 19  1  0
  4 17  1  0
  4 20  2  0
  4 21  1  0
  5 11  1  0
  5 19  1  0
  5 23  2  0
  6  7  1  0
  6 24  1  0
  7  8  1  0
  7  9  1  0
  9 25  1  6
  9 26  1  0
  9 27  1  0
 10 11  2  0
 10 28  1  0
 11 29  1  0
 12 13  1  0
 12 14  2  0
 12 33  1  0
 14 15  1  0
 15 34  2  0
 16 33  2  0
 16 34  1  0
 16 35  1  0
 19 20  1  0
 21 22  1  0
 23 24  1  0
 24 28  2  0
 28 30  1  0
 30 31  2  0
 30 32  1  0
 32 33  1  0
  1 36  1  0
  1 37  1  0
  1 38  1  0
  2 39  1  0
  2 40  1  0
  7 41  1  1
  8 42  1  0
  8 43  1  0
  8 44  1  0
 10 45  1  0
 13 46  1  0
 13 47  1  0
 13 48  1  0
 14 49  1  0
 15 50  1  0
 21 51  1  0
 21 52  1  0
 22 53  1  0
 32 54  1  0
M  END
>  <filename_input>  (24) 
8DHG_T78_docked.sdf

>  <pdb_id>  (24) 
8DHG_T78

>  <pose_rank>  (24) 
23

>  <num_atoms_heavy>  (24) 
35

>  <num_torsions>  (24) 
7

>  <pose>  (24) 
[21.9858785111215, -15.094732919335813, 18.675021841138832, 0.1311580148588435, -2.5472454899132564, 0.7666911705278407, 1.5042461083079453, -2.4664334161178805, -0.2002365387455038, -1.1326613647005992, 0.4753261420711112, -0.5343550596852309, -2.9577333688984426]

>  <energy>  (24) 
-74.34578606779728

>  <inter_energy>  (24) 
-106.97550927595316

>  <intra_energy>  (24) 
37.25923410171352

>  <rmsd>  (24) 
13.151

>  <sdf_rank>  (24) 
0

$$$$

     RDKit          3D

 54 56  0  0  0  0  0  0  0  0999 V2000
   34.7138  -32.3174   28.7757 C   0  0  0  0  0  0  0  0  0  0  0  0
   33.6355  -33.2118   29.3769 C   0  0  0  0  0  0  0  0  0  0  0  0
   31.4189  -32.2774   28.6884 C   0  0  0  0  0  0  0  0  0  0  0  0
   32.0464  -31.8098   30.7542 C   0  0  0  0  0  0  0  0  0  0  0  0
   29.2821  -31.0366   28.8003 C   0  0  0  0  0  0  0  0  0  0  0  0
   25.9288  -30.9352   30.0585 O   0  0  0  0  0  0  0  0  0  0  0  0
   26.1050  -31.2550   31.4376 C   0  0  1  0  0  0  0  0  0  0  0  0
   26.1675  -29.9733   32.2690 C   0  0  0  0  0  0  0  0  0  0  0  0
   24.9208  -32.1412   31.8079 C   0  0  1  0  0  0  0  0  0  0  0  0
   27.9118  -30.0184   27.1148 C   0  0  0  0  0  0  0  0  0  0  0  0
   29.1507  -30.4326   27.5427 C   0  0  0  0  0  0  0  0  0  0  0  0
   22.5969  -28.3118   27.8946 C   0  0  0  0  0  0  0  0  0  0  0  0
   22.5556  -29.3095   29.0319 C   0  0  0  0  0  0  0  0  0  0  0  0
   21.4090  -27.7336   27.4648 C   0  0  0  0  0  0  0  0  0  0  0  0
   21.4067  -26.7991   26.4363 C   0  0  0  0  0  0  0  0  0  0  0  0
   23.6980  -26.9633   26.2192 C   0  0  0  0  0  0  0  0  0  0  0  0
   32.4066  -32.4553   29.5898 N   0  0  0  0  0  0  0  0  0  0  0  0
   31.3869  -32.7157   27.5360 O   0  0  0  0  0  0  0  0  0  0  0  0
   30.4847  -31.5074   29.2949 N   0  0  0  0  0  0  0  0  0  0  0  0
   30.9163  -31.2437   30.5897 N   0  0  0  0  0  0  0  0  0  0  0  0
   32.7788  -31.7311   32.0656 C   0  0  0  0  0  0  0  0  0  0  0  0
   32.5729  -30.5090   32.7567 O   0  0  0  0  0  0  0  0  0  0  0  0
   28.2134  -31.1703   29.5719 N   0  0  0  0  0  0  0  0  0  0  0  0
   26.9917  -30.7661   29.2184 C   0  0  0  0  0  0  0  0  0  0  0  0
   24.8711  -33.2144   30.9267 F   0  0  0  0  0  0  0  0  0  0  0  0
   25.1188  -32.6110   33.0845 F   0  0  0  0  0  0  0  0  0  0  0  0
   23.7411  -31.4266   31.7235 F   0  0  0  0  0  0  0  0  0  0  0  0
   26.7822  -30.1509   27.9479 C   0  0  0  0  0  0  0  0  0  0  0  0
   30.1838  -30.2489   26.7119 F   0  0  0  0  0  0  0  0  0  0  0  0
   25.4565  -29.7160   27.4390 C   0  0  0  0  0  0  0  0  0  0  0  0
   24.7134  -30.5453   26.9383 O   0  0  0  0  0  0  0  0  0  0  0  0
   25.0335  -28.4279   27.6287 N   0  0  0  0  0  0  0  0  0  0  0  0
   23.7861  -27.9241   27.2388 C   0  0  0  0  0  0  0  0  0  0  0  0
   22.5381  -26.4347   25.8478 N   0  0  0  0  0  0  0  0  0  0  0  0
   25.1275  -26.4569   25.4154 Cl  0  0  0  0  0  0  0  0  0  0  0  0
   35.2880  -31.8412   29.5842 H   0  0  0  0  0  0  0  0  0  0  0  0
   35.3892  -32.9241   28.1546 H   0  0  0  0  0  0  0  0  0  0  0  0
   34.2424  -31.5415   28.1546 H   0  0  0  0  0  0  0  0  0  0  0  0
   33.4327  -34.0466   28.6899 H   0  0  0  0  0  0  0  0  0  0  0  0
   33.9898  -33.5960   30.3449 H   0  0  0  0  0  0  0  0  0  0  0  0
   27.0491  -31.7837   31.6354 H   0  0  0  0  0  0  0  0  0  0  0  0
   26.1550  -30.2292   33.3388 H   0  0  0  0  0  0  0  0  0  0  0  0
   27.0932  -29.4280   32.0332 H   0  0  0  0  0  0  0  0  0  0  0  0
   25.2991  -29.3406   32.0332 H   0  0  0  0  0  0  0  0  0  0  0  0
   27.8006  -29.5793   26.1124 H   0  0  0  0  0  0  0  0  0  0  0  0
   22.5778  -28.7725   29.9916 H   0  0  0  0  0  0  0  0  0  0  0  0
   21.6322  -29.9034   28.9653 H   0  0  0  0  0  0  0  0  0  0  0  0
   23.4269  -29.9776   28.9653 H   0  0  0  0  0  0  0  0  0  0  0  0
   20.4605  -28.0183   27.9436 H   0  0  0  0  0  0  0  0  0  0  0  0
   20.4553  -26.3565   26.1062 H   0  0  0  0  0  0  0  0  0  0  0  0
   32.4343  -32.5559   32.7068 H   0  0  0  0  0  0  0  0  0  0  0  0
   33.8534  -31.7983   31.8405 H   0  0  0  0  0  0  0  0  0  0  0  0
   32.6006  -30.6731   33.7326 H   0  0  0  0  0  0  0  0  0  0  0  0
   25.6832  -27.7785   28.0947 H   0  0  0  0  0  0  0  0  0  0  0  0
  1  2  1  0
  2 17  1  0
  3 17  1  0
  3 18  2  0
  3 19  1  0
  4 17  1  0
  4 20  2  0
  4 21  1  0
  5 11  1  0
  5 19  1  0
  5 23  2  0
  6  7  1  0
  6 24  1  0
  7  8  1  0
  7  9  1  0
  9 25  1  6
  9 26  1  0
  9 27  1  0
 10 11  2  0
 10 28  1  0
 11 29  1  0
 12 13  1  0
 12 14  2  0
 12 33  1  0
 14 15  1  0
 15 34  2  0
 16 33  2  0
 16 34  1  0
 16 35  1  0
 19 20  1  0
 21 22  1  0
 23 24  1  0
 24 28  2  0
 28 30  1  0
 30 31  2  0
 30 32  1  0
 32 33  1  0
  1 36  1  0
  1 37  1  0
  1 38  1  0
  2 39  1  0
  2 40  1  0
  7 41  1  6
  8 42  1  0
  8 43  1  0
  8 44  1  0
 10 45  1  0
 13 46  1  0
 13 47  1  0
 13 48  1  0
 14 49  1  0
 15 50  1  0
 21 51  1  0
 21 52  1  0
 22 53  1  0
 32 54  1  0
M  END
>  <filename_input>  (25) 
8DHG_T78_docked.sdf

>  <pdb_id>  (25) 
8DHG_T78

>  <pose_rank>  (25) 
24

>  <num_atoms_heavy>  (25) 
35

>  <num_torsions>  (25) 
7

>  <pose>  (25) 
[31.418882783481667, -32.27740915683133, 28.688395742214382, 1.687112033592266, 1.6782151304650543, 5.249316203712744, -4.467482534582529, 6.3186664453140775, -0.1382091377000084, 1.5953337702342012, 6.7650522859911675, -0.12217052752163057, -0.07333465425219543]

>  <energy>  (25) 
-58.52297545019376

>  <inter_energy>  (25) 
-65.54693405246101

>  <intra_energy>  (25) 
14.856939767348061

>  <rmsd>  (25) 
9.91811

>  <sdf_rank>  (25) 
0

$$$$

     RDKit          3D

 54 56  0  0  0  0  0  0  0  0999 V2000
   34.2290  -20.8280   21.8020 C   0  0  0  0  0  0  0  0  0  0  0  0
   33.7180  -22.2180   22.1640 C   0  0  0  0  0  0  0  0  0  0  0  0
   31.2330  -22.3480   21.9020 C   0  0  0  0  0  0  0  0  0  0  0  0
   31.9500  -21.8740   23.9370 C   0  0  0  0  0  0  0  0  0  0  0  0
   28.8270  -22.2600   22.4690 C   0  0  0  0  0  0  0  0  0  0  0  0
   26.0600  -23.8640   24.0840 O   0  0  0  0  0  0  0  0  0  0  0  0
   26.7060  -24.6950   25.0470 C   0  0  1  0  0  0  0  0  0  0  0  0
   26.7980  -23.9680   26.3890 C   0  0  0  0  0  0  0  0  0  0  0  0
   25.8670  -25.9660   25.1210 C   0  0  1  0  0  0  0  0  0  0  0  0
   26.8700  -21.8140   21.1550 C   0  0  0  0  0  0  0  0  0  0  0  0
   28.2190  -21.6510   21.3630 C   0  0  0  0  0  0  0  0  0  0  0  0
   22.1090  -24.5670   21.1040 C   0  0  0  0  0  0  0  0  0  0  0  0
   23.0280  -24.9580   19.9670 C   0  0  0  0  0  0  0  0  0  0  0  0
   20.7520  -24.8450   20.9970 C   0  0  0  0  0  0  0  0  0  0  0  0
   19.8780  -24.5190   22.0270 C   0  0  0  0  0  0  0  0  0  0  0  0
   21.6080  -23.6510   23.2830 C   0  0  0  0  0  0  0  0  0  0  0  0
   32.3420  -22.1460   22.6430 N   0  0  0  0  0  0  0  0  0  0  0  0
   31.1910  -22.6210   20.7000 O   0  0  0  0  0  0  0  0  0  0  0  0
   30.1810  -22.1710   22.7360 N   0  0  0  0  0  0  0  0  0  0  0  0
   30.6770  -21.8820   24.0020 N   0  0  0  0  0  0  0  0  0  0  0  0
   32.7950  -21.6100   25.1530 C   0  0  0  0  0  0  0  0  0  0  0  0
   33.7040  -20.5330   24.9880 O   0  0  0  0  0  0  0  0  0  0  0  0
   28.0850  -22.9580   23.3160 N   0  0  0  0  0  0  0  0  0  0  0  0
   26.7690  -23.1300   23.1770 C   0  0  0  0  0  0  0  0  0  0  0  0
   25.8150  -26.5430   23.8580 F   0  0  0  0  0  0  0  0  0  0  0  0
   26.4800  -26.8350   25.9920 F   0  0  0  0  0  0  0  0  0  0  0  0
   24.5840  -25.6710   25.5410 F   0  0  0  0  0  0  0  0  0  0  0  0
   26.0850  -22.5460   22.0690 C   0  0  0  0  0  0  0  0  0  0  0  0
   28.8970  -20.9190   20.4710 F   0  0  0  0  0  0  0  0  0  0  0  0
   24.6360  -22.7220   21.7950 C   0  0  0  0  0  0  0  0  0  0  0  0
   24.1280  -22.1020   20.8740 O   0  0  0  0  0  0  0  0  0  0  0  0
   23.9090  -23.6470   22.4950 N   0  0  0  0  0  0  0  0  0  0  0  0
   22.5540  -23.9330   22.2850 C   0  0  0  0  0  0  0  0  0  0  0  0
   20.3210  -23.9420   23.1360 N   0  0  0  0  0  0  0  0  0  0  0  0
   22.1200  -22.8980   24.7380 Cl  0  0  0  0  0  0  0  0  0  0  0  0
   34.4369  -20.2626   22.7224 H   0  0  0  0  0  0  0  0  0  0  0  0
   35.1524  -20.9192   21.2112 H   0  0  0  0  0  0  0  0  0  0  0  0
   33.4664  -20.2994   21.2112 H   0  0  0  0  0  0  0  0  0  0  0  0
   33.7583  -22.8622   21.2733 H   0  0  0  0  0  0  0  0  0  0  0  0
   34.3516  -22.6343   22.9610 H   0  0  0  0  0  0  0  0  0  0  0  0
   27.7419  -24.9415   24.7710 H   0  0  0  0  0  0  0  0  0  0  0  0
   26.7058  -24.6967   27.2078 H   0  0  0  0  0  0  0  0  0  0  0  0
   27.7682  -23.4549   26.4623 H   0  0  0  0  0  0  0  0  0  0  0  0
   25.9862  -23.2294   26.4623 H   0  0  0  0  0  0  0  0  0  0  0  0
   26.3983  -21.3688   20.2665 H   0  0  0  0  0  0  0  0  0  0  0  0
   23.9677  -25.3578   20.3759 H   0  0  0  0  0  0  0  0  0  0  0  0
   22.5405  -25.7267   19.3493 H   0  0  0  0  0  0  0  0  0  0  0  0
   23.2438  -24.0738   19.3493 H   0  0  0  0  0  0  0  0  0  0  0  0
   20.3654  -25.3282   20.0876 H   0  0  0  0  0  0  0  0  0  0  0  0
   18.8061  -24.7421   21.9213 H   0  0  0  0  0  0  0  0  0  0  0  0
   32.1283  -21.3767   25.9963 H   0  0  0  0  0  0  0  0  0  0  0  0
   33.3945  -22.5146   25.3328 H   0  0  0  0  0  0  0  0  0  0  0  0
   33.9854  -20.1996   25.8767 H   0  0  0  0  0  0  0  0  0  0  0  0
   24.3965  -24.1738   23.2338 H   0  0  0  0  0  0  0  0  0  0  0  0
  1  2  1  0
  2 17  1  0
  3 17  1  0
  3 18  2  0
  3 19  1  0
  4 17  1  0
  4 20  2  0
  4 21  1  0
  5 11  1  0
  5 19  1  0
  5 23  2  0
  6  7  1  0
  6 24  1  0
  7  8  1  0
  7  9  1  0
  9 25  1  6
  9 26  1  0
  9 27  1  0
 10 11  2  0
 10 28  1  0
 11 29  1  0
 12 13  1  0
 12 14  2  0
 12 33  1  0
 14 15  1  0
 15 34  2  0
 16 33  2  0
 16 34  1  0
 16 35  1  0
 19 20  1  0
 21 22  1  0
 23 24  1  0
 24 28  2  0
 28 30  1  0
 30 31  2  0
 30 32  1  0
 32 33  1  0
  1 36  1  0
  1 37  1  0
  1 38  1  0
  2 39  1  0
  2 40  1  0
  7 41  1  6
  8 42  1  0
  8 43  1  0
  8 44  1  0
 10 45  1  0
 13 46  1  0
 13 47  1  0
 13 48  1  0
 14 49  1  0
 15 50  1  0
 21 51  1  0
 21 52  1  0
 22 53  1  0
 32 54  1  0
M  END
>  <filename_input>  (26) 
8DHG_T78_docked.sdf

>  <pdb_id>  (26) 
8DHG_T78

>  <pose_rank>  (26) 
25

>  <num_atoms_heavy>  (26) 
35

>  <num_torsions>  (26) 
7

>  <pose>  (26) 
[31.233, -22.348, 21.902, 1e-06, 1e-06, 1e-06, 0.0, 0.0, 0.0, 0.0, 0.0, 0.0, 0.0]

>  <energy>  (26) 
-1327.0294722354233

>  <inter_energy>  (26) 
-1358.2952625209762

>  <intra_energy>  (26) 
45.61403431969737

>  <rmsd>  (26) 
0.0

>  <sdf_rank>  (26) 
0

$$$$
