
     RDKit          3D

 15 15  0  0  0  0  0  0  0  0999 V2000
   14.1723   15.6058   47.6416 O   0  0  0  0  0  0  0  0  0  0  0  0
   15.0080   16.3511   46.7702 C   0  0  2  0  0  0  0  0  0  0  0  0
   15.5962   15.3305   45.7927 C   0  0  0  0  0  0  0  0  0  0  0  0
   16.0251   15.7196   44.6695 O   0  0  0  0  0  0  0  0  0  0  0  0
   16.1162   17.0111   47.5285 C   0  0  0  0  0  0  0  0  0  0  0  0
   16.1463   16.3049   48.8537 C   0  0  0  0  0  0  0  0  0  0  0  0
   14.8438   15.5030   48.9132 C   0  0  0  0  0  0  0  0  0  0  0  0
   15.6275   14.1136   46.1036 O   0  0  0  0  0  0  0  0  0  0  0  0
   14.4417   17.1446   46.2606 H   0  0  0  0  0  0  0  0  0  0  0  0
   17.0739   16.8877   47.0015 H   0  0  0  0  0  0  0  0  0  0  0  0
   15.9576   18.0941   47.6381 H   0  0  0  0  0  0  0  0  0  0  0  0
   17.0154   15.6332   48.9127 H   0  0  0  0  0  0  0  0  0  0  0  0
   16.2323   17.0108   49.6929 H   0  0  0  0  0  0  0  0  0  0  0  0
   14.1972   15.9076   49.7058 H   0  0  0  0  0  0  0  0  0  0  0  0
   15.0657   14.4482   49.1327 H   0  0  0  0  0  0  0  0  0  0  0  0
  1  2  1  0
  1  7  1  0
  2  3  1  0
  2  5  1  0
  3  4  1  0
  3  8  2  0
  5  6  1  0
  6  7  1  0
  2  9  1  6
  5 10  1  0
  5 11  1  0
  6 12  1  0
  6 13  1  0
  7 14  1  0
  7 15  1  0
M  CHG  1   4  -1
M  END
>  <filename_input>  (1) 
8DKO_TFB_docked.sdf

>  <pdb_id>  (1) 
8DKO_TFB

>  <pose_rank>  (1) 
0

>  <num_atoms_heavy>  (1) 
8

>  <num_torsions>  (1) 
1

>  <pose>  (1) 
[14.172304451250422, 15.605799066497907, 47.641639666074894, -1.096817766613906, 4.380477336466752, -4.310973874088646, 9.277853433114936]

>  <energy>  (1) 
-599.190679512457

>  <inter_energy>  (1) 
-592.0371474867508

>  <intra_energy>  (1) 
4.149723635189661

>  <rmsd>  (1) 
0.257398

>  <sdf_rank>  (1) 
0

$$$$

     RDKit          3D

 15 15  0  0  0  0  0  0  0  0999 V2000
   14.7013   14.8117   47.8282 O   0  0  0  0  0  0  0  0  0  0  0  0
   15.8935   15.4216   47.3592 C   0  0  2  0  0  0  0  0  0  0  0  0
   16.1511   16.5990   48.3028 C   0  0  0  0  0  0  0  0  0  0  0  0
   15.8969   16.4770   49.5347 O   0  0  0  0  0  0  0  0  0  0  0  0
   15.7191   15.9307   45.9631 C   0  0  0  0  0  0  0  0  0  0  0  0
   14.2328   15.9553   45.7480 C   0  0  0  0  0  0  0  0  0  0  0  0
   13.6438   15.1491   46.9083 C   0  0  0  0  0  0  0  0  0  0  0  0
   16.5906   17.6830   47.8440 O   0  0  0  0  0  0  0  0  0  0  0  0
   16.7266   14.7035   47.3446 H   0  0  0  0  0  0  0  0  0  0  0  0
   16.1421   16.9412   45.8631 H   0  0  0  0  0  0  0  0  0  0  0  0
   16.2358   15.3014   45.2235 H   0  0  0  0  0  0  0  0  0  0  0  0
   13.8577   16.9892   45.7674 H   0  0  0  0  0  0  0  0  0  0  0  0
   13.9526   15.5335   44.7714 H   0  0  0  0  0  0  0  0  0  0  0  0
   13.1832   14.2281   46.5215 H   0  0  0  0  0  0  0  0  0  0  0  0
   12.8774   15.7458   47.4248 H   0  0  0  0  0  0  0  0  0  0  0  0
  1  2  1  0
  1  7  1  0
  2  3  1  0
  2  5  1  0
  3  4  1  0
  3  8  2  0
  5  6  1  0
  6  7  1  0
  2  9  1  6
  5 10  1  0
  5 11  1  0
  6 12  1  0
  6 13  1  0
  7 14  1  0
  7 15  1  0
M  CHG  1   4  -1
M  END
>  <filename_input>  (2) 
8DKO_TFB_docked.sdf

>  <pdb_id>  (2) 
8DKO_TFB

>  <pose_rank>  (2) 
1

>  <num_atoms_heavy>  (2) 
8

>  <num_torsions>  (2) 
1

>  <pose>  (2) 
[14.701278831015642, 14.811697025993455, 47.8281873944346, 2.4814794058494307, 1.741218482465887, -1.650752593856458, 0.8978882152565487]

>  <energy>  (2) 
-371.48747125932937

>  <inter_energy>  (2) 
-380.64624024414945

>  <intra_energy>  (2) 
0.0002984492707814505

>  <rmsd>  (2) 
2.85868

>  <sdf_rank>  (2) 
0

$$$$

     RDKit          3D

 15 15  0  0  0  0  0  0  0  0999 V2000
   15.9690   14.7894   47.6282 O   0  0  0  0  0  0  0  0  0  0  0  0
   14.9300   14.7172   46.6646 C   0  0  2  0  0  0  0  0  0  0  0  0
   15.0587   15.9910   45.8256 C   0  0  0  0  0  0  0  0  0  0  0  0
   15.8752   16.0219   44.8616 O   0  0  0  0  0  0  0  0  0  0  0  0
   13.5886   14.6900   47.3271 C   0  0  0  0  0  0  0  0  0  0  0  0
   13.8469   15.1525   48.7325 C   0  0  0  0  0  0  0  0  0  0  0  0
   15.3677   15.1045   48.9000 C   0  0  0  0  0  0  0  0  0  0  0  0
   14.3703   17.0016   46.1143 O   0  0  0  0  0  0  0  0  0  0  0  0
   15.0147   13.8032   46.0584 H   0  0  0  0  0  0  0  0  0  0  0  0
   12.8905   15.3702   46.8172 H   0  0  0  0  0  0  0  0  0  0  0  0
   13.1297   13.6908   47.2959 H   0  0  0  0  0  0  0  0  0  0  0  0
   13.4756   16.1781   48.8750 H   0  0  0  0  0  0  0  0  0  0  0  0
   13.3325   14.5222   49.4728 H   0  0  0  0  0  0  0  0  0  0  0  0
   15.6338   14.3312   49.6357 H   0  0  0  0  0  0  0  0  0  0  0  0
   15.7342   16.0796   49.2536 H   0  0  0  0  0  0  0  0  0  0  0  0
  1  2  1  0
  1  7  1  0
  2  3  1  0
  2  5  1  0
  3  4  1  0
  3  8  2  0
  5  6  1  0
  6  7  1  0
  2  9  1  6
  5 10  1  0
  5 11  1  0
  6 12  1  0
  6 13  1  0
  7 14  1  0
  7 15  1  0
M  CHG  1   4  -1
M  END
>  <filename_input>  (3) 
8DKO_TFB_docked.sdf

>  <pdb_id>  (3) 
8DKO_TFB

>  <pose_rank>  (3) 
2

>  <num_atoms_heavy>  (3) 
8

>  <num_torsions>  (3) 
1

>  <pose>  (3) 
[15.968989815354792, 14.789435887471116, 47.628182939528436, -0.017518754794772405, -0.16746772962663914, 2.5915042283534038, 1.7081317438672095]

>  <energy>  (3) 
-386.50905823896386

>  <inter_energy>  (3) 
-399.5248739786616

>  <intra_energy>  (3) 
3.9403181415782944

>  <rmsd>  (3) 
2.10125

>  <sdf_rank>  (3) 
0

$$$$

     RDKit          3D

 15 15  0  0  0  0  0  0  0  0999 V2000
   14.0709   15.5991   47.7050 O   0  0  0  0  0  0  0  0  0  0  0  0
   14.9043   16.3202   46.8113 C   0  0  2  0  0  0  0  0  0  0  0  0
   15.4407   15.2824   45.8221 C   0  0  0  0  0  0  0  0  0  0  0  0
   14.7113   14.3065   45.4868 O   0  0  0  0  0  0  0  0  0  0  0  0
   16.0483   16.9517   47.5403 C   0  0  0  0  0  0  0  0  0  0  0  0
   16.0924   16.2474   48.8661 C   0  0  0  0  0  0  0  0  0  0  0  0
   14.7707   15.4807   48.9598 C   0  0  0  0  0  0  0  0  0  0  0  0
   16.6072   15.3952   45.3693 O   0  0  0  0  0  0  0  0  0  0  0  0
   14.3469   17.1275   46.3138 H   0  0  0  0  0  0  0  0  0  0  0  0
   16.9889   16.8017   46.9901 H   0  0  0  0  0  0  0  0  0  0  0  0
   15.9214   18.0388   47.6510 H   0  0  0  0  0  0  0  0  0  0  0  0
   16.9444   15.5528   48.9053 H   0  0  0  0  0  0  0  0  0  0  0  0
   16.2179   16.9523   49.7011 H   0  0  0  0  0  0  0  0  0  0  0  0
   14.1550   15.9040   49.7671 H   0  0  0  0  0  0  0  0  0  0  0  0
   14.9698   14.4208   49.1764 H   0  0  0  0  0  0  0  0  0  0  0  0
  1  2  1  0
  1  7  1  0
  2  3  1  0
  2  5  1  0
  3  4  1  0
  3  8  2  0
  5  6  1  0
  6  7  1  0
  2  9  1  6
  5 10  1  0
  5 11  1  0
  6 12  1  0
  6 13  1  0
  7 14  1  0
  7 15  1  0
M  CHG  1   4  -1
M  END
>  <filename_input>  (4) 
8DKO_TFB_docked.sdf

>  <pdb_id>  (4) 
8DKO_TFB

>  <pose_rank>  (4) 
3

>  <num_atoms_heavy>  (4) 
8

>  <num_torsions>  (4) 
1

>  <pose>  (4) 
[14.070923978449706, 15.599102909715132, 47.70498830442455, -5.055979253881654, 3.593132100138781, -0.964220800758311, 0.833009596650503]

>  <energy>  (4) 
-573.1706978731122

>  <inter_energy>  (4) 
-572.9979335325444

>  <intra_energy>  (4) 
0.0

>  <rmsd>  (4) 
0.471295

>  <sdf_rank>  (4) 
0

$$$$

     RDKit          3D

 15 15  0  0  0  0  0  0  0  0999 V2000
   14.0758   15.9667   47.8990 O   0  0  0  0  0  0  0  0  0  0  0  0
   14.7661   16.7047   46.9031 C   0  0  2  0  0  0  0  0  0  0  0  0
   15.1131   15.6926   45.8085 C   0  0  0  0  0  0  0  0  0  0  0  0
   16.2670   15.7037   45.2932 O   0  0  0  0  0  0  0  0  0  0  0  0
   16.0259   17.2953   47.4535 C   0  0  0  0  0  0  0  0  0  0  0  0
   16.2720   16.5469   48.7322 C   0  0  0  0  0  0  0  0  0  0  0  0
   14.9686   15.7968   49.0181 C   0  0  0  0  0  0  0  0  0  0  0  0
   14.2440   14.8752   45.4149 O   0  0  0  0  0  0  0  0  0  0  0  0
   14.1509   17.5361   46.5283 H   0  0  0  0  0  0  0  0  0  0  0  0
   16.8609   17.1499   46.7523 H   0  0  0  0  0  0  0  0  0  0  0  0
   15.9402   18.3798   47.6163 H   0  0  0  0  0  0  0  0  0  0  0  0
   17.1052   15.8392   48.6103 H   0  0  0  0  0  0  0  0  0  0  0  0
   16.5461   17.2220   49.5564 H   0  0  0  0  0  0  0  0  0  0  0  0
   14.5015   16.2020   49.9278 H   0  0  0  0  0  0  0  0  0  0  0  0
   15.1795   14.7275   49.1670 H   0  0  0  0  0  0  0  0  0  0  0  0
  1  2  1  0
  1  7  1  0
  2  3  1  0
  2  5  1  0
  3  4  1  0
  3  8  2  0
  5  6  1  0
  6  7  1  0
  2  9  1  6
  5 10  1  0
  5 11  1  0
  6 12  1  0
  6 13  1  0
  7 14  1  0
  7 15  1  0
M  CHG  1   4  -1
M  END
>  <filename_input>  (5) 
8DKO_TFB_docked.sdf

>  <pdb_id>  (5) 
8DKO_TFB

>  <pose_rank>  (5) 
4

>  <num_atoms_heavy>  (5) 
8

>  <num_torsions>  (5) 
1

>  <pose>  (5) 
[14.07575808963652, 15.966659318361978, 47.89901668448047, -1.3512459211593373, -5.9344266012956375, 0.6154209432451129, -2.1300874763242486]

>  <energy>  (5) 
-530.8472104973456

>  <inter_energy>  (5) 
-527.8896918802815

>  <intra_energy>  (5) 
0.1048688604656488

>  <rmsd>  (5) 
0.619274

>  <sdf_rank>  (5) 
0

$$$$

     RDKit          3D

 15 15  0  0  0  0  0  0  0  0999 V2000
   16.0481   14.7979   47.1376 O   0  0  0  0  0  0  0  0  0  0  0  0
   14.8462   15.4087   46.6955 C   0  0  2  0  0  0  0  0  0  0  0  0
   15.1672   15.9987   45.3200 C   0  0  0  0  0  0  0  0  0  0  0  0
   14.2748   16.0143   44.4254 O   0  0  0  0  0  0  0  0  0  0  0  0
   14.4322   16.5063   47.6244 C   0  0  0  0  0  0  0  0  0  0  0  0
   15.6584   16.7989   48.4409 C   0  0  0  0  0  0  0  0  0  0  0  0
   16.6125   15.6334   48.1680 C   0  0  0  0  0  0  0  0  0  0  0  0
   16.3190   16.4413   45.0833 O   0  0  0  0  0  0  0  0  0  0  0  0
   14.0218   14.6813   46.6598 H   0  0  0  0  0  0  0  0  0  0  0  0
   14.1218   17.3969   47.0583 H   0  0  0  0  0  0  0  0  0  0  0  0
   13.5744   16.2197   48.2505 H   0  0  0  0  0  0  0  0  0  0  0  0
   16.1125   17.7504   48.1269 H   0  0  0  0  0  0  0  0  0  0  0  0
   15.4249   16.8960   49.5114 H   0  0  0  0  0  0  0  0  0  0  0  0
   16.7485   15.0448   49.0872 H   0  0  0  0  0  0  0  0  0  0  0  0
   17.5887   16.0204   47.8402 H   0  0  0  0  0  0  0  0  0  0  0  0
  1  2  1  0
  1  7  1  0
  2  3  1  0
  2  5  1  0
  3  4  1  0
  3  8  2  0
  5  6  1  0
  6  7  1  0
  2  9  1  6
  5 10  1  0
  5 11  1  0
  6 12  1  0
  6 13  1  0
  7 14  1  0
  7 15  1  0
M  CHG  1   4  -1
M  END
>  <filename_input>  (6) 
8DKO_TFB_docked.sdf

>  <pdb_id>  (6) 
8DKO_TFB

>  <pose_rank>  (6) 
5

>  <num_atoms_heavy>  (6) 
8

>  <num_torsions>  (6) 
1

>  <pose>  (6) 
[16.04807592375802, 14.797876458179552, 47.137642546868214, -0.8954197914842525, -1.1255365349987565, -4.234018921215436, -3.4983181369892744]

>  <energy>  (6) 
-393.2927461633233

>  <inter_energy>  (6) 
-406.35269335415524

>  <intra_energy>  (6) 
5.507753690770822

>  <rmsd>  (6) 
1.69906

>  <sdf_rank>  (6) 
0

$$$$

     RDKit          3D

 15 15  0  0  0  0  0  0  0  0999 V2000
   14.1377   15.7260   47.8077 O   0  0  0  0  0  0  0  0  0  0  0  0
   14.9614   16.4825   46.9345 C   0  0  2  0  0  0  0  0  0  0  0  0
   15.4421   15.4968   45.8666 C   0  0  0  0  0  0  0  0  0  0  0  0
   15.7867   15.9289   44.7302 O   0  0  0  0  0  0  0  0  0  0  0  0
   16.1419   17.0411   47.6648 C   0  0  0  0  0  0  0  0  0  0  0  0
   16.2084   16.2543   48.9424 C   0  0  0  0  0  0  0  0  0  0  0  0
   14.8717   15.5134   49.0301 C   0  0  0  0  0  0  0  0  0  0  0  0
   15.4690   14.2663   46.1188 O   0  0  0  0  0  0  0  0  0  0  0  0
   14.4093   17.3319   46.5057 H   0  0  0  0  0  0  0  0  0  0  0  0
   17.0616   16.9045   47.0770 H   0  0  0  0  0  0  0  0  0  0  0  0
   16.0452   18.1216   47.8465 H   0  0  0  0  0  0  0  0  0  0  0  0
   17.0439   15.5395   48.9117 H   0  0  0  0  0  0  0  0  0  0  0  0
   16.3762   16.9025   49.8151 H   0  0  0  0  0  0  0  0  0  0  0  0
   14.2911   15.8992   49.8811 H   0  0  0  0  0  0  0  0  0  0  0  0
   15.0511   14.4378   49.1744 H   0  0  0  0  0  0  0  0  0  0  0  0
  1  2  1  0
  1  7  1  0
  2  3  1  0
  2  5  1  0
  3  4  1  0
  3  8  2  0
  5  6  1  0
  6  7  1  0
  2  9  1  6
  5 10  1  0
  5 11  1  0
  6 12  1  0
  6 13  1  0
  7 14  1  0
  7 15  1  0
M  CHG  1   4  -1
M  END
>  <filename_input>  (7) 
8DKO_TFB_docked.sdf

>  <pdb_id>  (7) 
8DKO_TFB

>  <pose_rank>  (7) 
6

>  <num_atoms_heavy>  (7) 
8

>  <num_torsions>  (7) 
1

>  <pose>  (7) 
[14.137674787877117, 15.7260051833289, 47.807673828113586, 11.164536962232823, 4.538757319774601, -3.81851852171047, -3.3287036190647887]

>  <energy>  (7) 
-572.2763626265173

>  <inter_energy>  (7) 
-580.3929218791613

>  <intra_energy>  (7) 
4.404358814529731

>  <rmsd>  (7) 
0.210805

>  <sdf_rank>  (7) 
0

$$$$

     RDKit          3D

 15 15  0  0  0  0  0  0  0  0999 V2000
   14.4218   15.6496   48.3474 O   0  0  0  0  0  0  0  0  0  0  0  0
   14.6450   16.5173   47.2472 C   0  0  2  0  0  0  0  0  0  0  0  0
   14.2695   15.7083   46.0033 C   0  0  0  0  0  0  0  0  0  0  0  0
   14.9491   14.6884   45.6951 O   0  0  0  0  0  0  0  0  0  0  0  0
   16.0847   16.9168   47.1661 C   0  0  0  0  0  0  0  0  0  0  0  0
   16.8053   15.9292   48.0386 C   0  0  0  0  0  0  0  0  0  0  0  0
   15.7081   15.2197   48.8361 C   0  0  0  0  0  0  0  0  0  0  0  0
   13.3052   16.0756   45.2865 O   0  0  0  0  0  0  0  0  0  0  0  0
   14.0539   17.4399   47.3439 H   0  0  0  0  0  0  0  0  0  0  0  0
   16.4466   16.8544   46.1292 H   0  0  0  0  0  0  0  0  0  0  0  0
   16.2471   17.9550   47.4914 H   0  0  0  0  0  0  0  0  0  0  0  0
   17.3631   15.2073   47.4240 H   0  0  0  0  0  0  0  0  0  0  0  0
   17.5378   16.4205   48.6959 H   0  0  0  0  0  0  0  0  0  0  0  0
   15.8024   15.4755   49.9018 H   0  0  0  0  0  0  0  0  0  0  0  0
   15.8065   14.1306   48.7170 H   0  0  0  0  0  0  0  0  0  0  0  0
  1  2  1  0
  1  7  1  0
  2  3  1  0
  2  5  1  0
  3  4  1  0
  3  8  2  0
  5  6  1  0
  6  7  1  0
  2  9  1  1
  5 10  1  0
  5 11  1  0
  6 12  1  0
  6 13  1  0
  7 14  1  0
  7 15  1  0
M  CHG  1   4  -1
M  END
>  <filename_input>  (8) 
8DKO_TFB_docked.sdf

>  <pdb_id>  (8) 
8DKO_TFB

>  <pose_rank>  (8) 
7

>  <num_atoms_heavy>  (8) 
8

>  <num_torsions>  (8) 
1

>  <pose>  (8) 
[14.421786703052522, 15.649643244164958, 48.34743739441561, 2.036088498264198, 6.594702655501306, -1.1836914702444798, -0.8942138657756283]

>  <energy>  (8) 
-416.14256296063326

>  <inter_energy>  (8) 
-403.95826747187937

>  <intra_energy>  (8) 
7.131888342990953

>  <rmsd>  (8) 
1.26135

>  <sdf_rank>  (8) 
0

$$$$

     RDKit          3D

 15 15  0  0  0  0  0  0  0  0999 V2000
   14.5247   15.7480   48.1213 O   0  0  0  0  0  0  0  0  0  0  0  0
   14.7752   16.4530   46.9157 C   0  0  2  0  0  0  0  0  0  0  0  0
   14.9698   15.3775   45.8440 C   0  0  0  0  0  0  0  0  0  0  0  0
   14.0959   14.4760   45.7005 O   0  0  0  0  0  0  0  0  0  0  0  0
   16.0196   17.2762   47.0274 C   0  0  0  0  0  0  0  0  0  0  0  0
   16.7350   16.7268   48.2283 C   0  0  0  0  0  0  0  0  0  0  0  0
   15.7092   15.8394   48.9380 C   0  0  0  0  0  0  0  0  0  0  0  0
   16.0048   15.3851   45.1318 O   0  0  0  0  0  0  0  0  0  0  0  0
   13.9485   17.1389   46.6788 H   0  0  0  0  0  0  0  0  0  0  0  0
   16.6383   17.1682   46.1244 H   0  0  0  0  0  0  0  0  0  0  0  0
   15.8004   18.3494   47.1290 H   0  0  0  0  0  0  0  0  0  0  0  0
   17.6085   16.1342   47.9187 H   0  0  0  0  0  0  0  0  0  0  0  0
   17.1093   17.5265   48.8843 H   0  0  0  0  0  0  0  0  0  0  0  0
   15.4523   16.2795   49.9129 H   0  0  0  0  0  0  0  0  0  0  0  0
   16.1310   14.8358   49.0957 H   0  0  0  0  0  0  0  0  0  0  0  0
  1  2  1  0
  1  7  1  0
  2  3  1  0
  2  5  1  0
  3  4  1  0
  3  8  2  0
  5  6  1  0
  6  7  1  0
  2  9  1  6
  5 10  1  0
  5 11  1  0
  6 12  1  0
  6 13  1  0
  7 14  1  0
  7 15  1  0
M  CHG  1   4  -1
M  END
>  <filename_input>  (9) 
8DKO_TFB_docked.sdf

>  <pdb_id>  (9) 
8DKO_TFB

>  <pose_rank>  (9) 
8

>  <num_atoms_heavy>  (9) 
8

>  <num_torsions>  (9) 
1

>  <pose>  (9) 
[14.524737617654267, 15.748010822485915, 48.12132609299657, -0.07636369350712519, 0.45409910488920846, 0.12864945129726524, 1.1565569649626255]

>  <energy>  (9) 
-495.45287458420876

>  <inter_energy>  (9) 
-513.8071811548414

>  <intra_energy>  (9) 
0.6505709563184519

>  <rmsd>  (9) 
0.794803

>  <sdf_rank>  (9) 
0

$$$$

     RDKit          3D

 15 15  0  0  0  0  0  0  0  0999 V2000
   13.8971   15.7876   47.6693 O   0  0  0  0  0  0  0  0  0  0  0  0
   14.6650   16.6382   46.8327 C   0  0  2  0  0  0  0  0  0  0  0  0
   14.8987   15.8453   45.5444 C   0  0  0  0  0  0  0  0  0  0  0  0
   13.9322   15.6370   44.7574 O   0  0  0  0  0  0  0  0  0  0  0  0
   15.9822   16.9613   47.4650 C   0  0  0  0  0  0  0  0  0  0  0  0
   16.1437   15.9405   48.5548 C   0  0  0  0  0  0  0  0  0  0  0  0
   14.7654   15.2925   48.7083 C   0  0  0  0  0  0  0  0  0  0  0  0
   16.0413   15.3887   45.2901 O   0  0  0  0  0  0  0  0  0  0  0  0
   14.1455   17.5909   46.6525 H   0  0  0  0  0  0  0  0  0  0  0  0
   16.7963   16.8761   46.7301 H   0  0  0  0  0  0  0  0  0  0  0  0
   16.0166   17.9907   47.8511 H   0  0  0  0  0  0  0  0  0  0  0  0
   16.8937   15.1880   48.2698 H   0  0  0  0  0  0  0  0  0  0  0  0
   16.4903   16.3951   49.4946 H   0  0  0  0  0  0  0  0  0  0  0  0
   14.3454   15.5471   49.6926 H   0  0  0  0  0  0  0  0  0  0  0  0
   14.8569   14.1993   48.6274 H   0  0  0  0  0  0  0  0  0  0  0  0
  1  2  1  0
  1  7  1  0
  2  3  1  0
  2  5  1  0
  3  4  1  0
  3  8  2  0
  5  6  1  0
  6  7  1  0
  2  9  1  6
  5 10  1  0
  5 11  1  0
  6 12  1  0
  6 13  1  0
  7 14  1  0
  7 15  1  0
M  CHG  1   4  -1
M  END
>  <filename_input>  (10) 
8DKO_TFB_docked.sdf

>  <pdb_id>  (10) 
8DKO_TFB

>  <pose_rank>  (10) 
9

>  <num_atoms_heavy>  (10) 
8

>  <num_torsions>  (10) 
1

>  <pose>  (10) 
[13.897111491095878, 15.7875921667947, 47.669310420149316, 10.076129316664495, 6.76675913392085, -4.347659296940534, -4.807013588693956]

>  <energy>  (10) 
-492.6594143257606

>  <inter_energy>  (10) 
-492.6369395638753

>  <intra_energy>  (10) 
2.479544778694913

>  <rmsd>  (10) 
0.961837

>  <sdf_rank>  (10) 
0

$$$$

     RDKit          3D

 15 15  0  0  0  0  0  0  0  0999 V2000
   14.0685   15.4492   47.7037 O   0  0  0  0  0  0  0  0  0  0  0  0
   14.9357   16.2467   46.9130 C   0  0  2  0  0  0  0  0  0  0  0  0
   15.4103   15.3360   45.7780 C   0  0  0  0  0  0  0  0  0  0  0  0
   15.4072   15.7678   44.5904 O   0  0  0  0  0  0  0  0  0  0  0  0
   16.1156   16.7047   47.7112 C   0  0  0  0  0  0  0  0  0  0  0  0
   16.1276   15.8146   48.9209 C   0  0  0  0  0  0  0  0  0  0  0  0
   14.7667   15.1137   48.9196 C   0  0  0  0  0  0  0  0  0  0  0  0
   15.7771   14.1613   46.0312 O   0  0  0  0  0  0  0  0  0  0  0  0
   14.4206   17.1460   46.5441 H   0  0  0  0  0  0  0  0  0  0  0  0
   17.0441   16.5861   47.1334 H   0  0  0  0  0  0  0  0  0  0  0  0
   16.0484   17.7694   47.9790 H   0  0  0  0  0  0  0  0  0  0  0  0
   16.9408   15.0775   48.8490 H   0  0  0  0  0  0  0  0  0  0  0  0
   16.2950   16.3837   49.8472 H   0  0  0  0  0  0  0  0  0  0  0  0
   14.1786   15.4478   49.7871 H   0  0  0  0  0  0  0  0  0  0  0  0
   14.9090   14.0245   48.9787 H   0  0  0  0  0  0  0  0  0  0  0  0
  1  2  1  0
  1  7  1  0
  2  3  1  0
  2  5  1  0
  3  4  1  0
  3  8  2  0
  5  6  1  0
  6  7  1  0
  2  9  1  6
  5 10  1  0
  5 11  1  0
  6 12  1  0
  6 13  1  0
  7 14  1  0
  7 15  1  0
M  CHG  1   4  -1
M  END
>  <filename_input>  (11) 
8DKO_TFB_docked.sdf

>  <pdb_id>  (11) 
8DKO_TFB

>  <pose_rank>  (11) 
10

>  <num_atoms_heavy>  (11) 
8

>  <num_torsions>  (11) 
1

>  <pose>  (11) 
[14.06853714735725, 15.449233692704194, 47.703747771744645, 6.066771856031363, 0.2011013371559815, -2.157543771053205, 2.581483312258576]

>  <energy>  (11) 
-549.0850950545631

>  <inter_energy>  (11) 
-558.5273053965418

>  <intra_energy>  (11) 
6.5961082767814485

>  <rmsd>  (11) 
0.434611

>  <sdf_rank>  (11) 
0

$$$$

     RDKit          3D

 15 15  0  0  0  0  0  0  0  0999 V2000
   14.4093   14.7746   47.9675 O   0  0  0  0  0  0  0  0  0  0  0  0
   15.1207   14.8317   46.7413 C   0  0  2  0  0  0  0  0  0  0  0  0
   16.1879   15.9118   46.9356 C   0  0  0  0  0  0  0  0  0  0  0  0
   16.8735   15.9260   47.9970 O   0  0  0  0  0  0  0  0  0  0  0  0
   14.2149   15.2227   45.6164 C   0  0  0  0  0  0  0  0  0  0  0  0
   12.9964   15.7904   46.2864 C   0  0  0  0  0  0  0  0  0  0  0  0
   13.1241   15.3938   47.7593 C   0  0  0  0  0  0  0  0  0  0  0  0
   16.3586   16.7878   46.0512 O   0  0  0  0  0  0  0  0  0  0  0  0
   15.5536   13.8527   46.4883 H   0  0  0  0  0  0  0  0  0  0  0  0
   14.6941   15.9793   44.9777 H   0  0  0  0  0  0  0  0  0  0  0  0
   13.9717   14.3716   44.9633 H   0  0  0  0  0  0  0  0  0  0  0  0
   12.9745   16.8853   46.1826 H   0  0  0  0  0  0  0  0  0  0  0  0
   12.0668   15.4098   45.8381 H   0  0  0  0  0  0  0  0  0  0  0  0
   12.3257   14.6838   48.0209 H   0  0  0  0  0  0  0  0  0  0  0  0
   13.0342   16.2873   48.3946 H   0  0  0  0  0  0  0  0  0  0  0  0
  1  2  1  0
  1  7  1  0
  2  3  1  0
  2  5  1  0
  3  4  1  0
  3  8  2  0
  5  6  1  0
  6  7  1  0
  2  9  1  6
  5 10  1  0
  5 11  1  0
  6 12  1  0
  6 13  1  0
  7 14  1  0
  7 15  1  0
M  CHG  1   4  -1
M  END
>  <filename_input>  (12) 
8DKO_TFB_docked.sdf

>  <pdb_id>  (12) 
8DKO_TFB

>  <pose_rank>  (12) 
11

>  <num_atoms_heavy>  (12) 
8

>  <num_torsions>  (12) 
1

>  <pose>  (12) 
[14.40928368565451, 14.774552555731223, 47.96754176978128, 2.3716160922830745, 0.9362554076058682, -2.7593327980366937, 1.0404583301734034]

>  <energy>  (12) 
-338.834851430852

>  <inter_energy>  (12) 
-337.86690512814266

>  <intra_energy>  (12) 
0.21748117475811546

>  <rmsd>  (12) 
2.46473

>  <sdf_rank>  (12) 
0

$$$$

     RDKit          3D

 15 15  0  0  0  0  0  0  0  0999 V2000
   15.0798   20.6147   38.1897 O   0  0  0  0  0  0  0  0  0  0  0  0
   15.0141   21.7647   39.0181 C   0  0  2  0  0  0  0  0  0  0  0  0
   15.9264   22.8004   38.3561 C   0  0  0  0  0  0  0  0  0  0  0  0
   16.1221   23.9118   38.9247 O   0  0  0  0  0  0  0  0  0  0  0  0
   15.5200   21.4615   40.3933 C   0  0  0  0  0  0  0  0  0  0  0  0
   16.2713   20.1691   40.2479 C   0  0  0  0  0  0  0  0  0  0  0  0
   15.8800   19.6276   38.8706 C   0  0  0  0  0  0  0  0  0  0  0  0
   16.4546   22.5481   37.2444 O   0  0  0  0  0  0  0  0  0  0  0  0
   13.9783   22.1204   39.1210 H   0  0  0  0  0  0  0  0  0  0  0  0
   16.1883   22.2610   40.7456 H   0  0  0  0  0  0  0  0  0  0  0  0
   14.7056   21.3885   41.1291 H   0  0  0  0  0  0  0  0  0  0  0  0
   17.3558   20.3460   40.2986 H   0  0  0  0  0  0  0  0  0  0  0  0
   16.0268   19.4597   41.0522 H   0  0  0  0  0  0  0  0  0  0  0  0
   15.3000   18.7005   38.9897 H   0  0  0  0  0  0  0  0  0  0  0  0
   16.7855   19.4133   38.2839 H   0  0  0  0  0  0  0  0  0  0  0  0
  1  2  1  0
  1  7  1  0
  2  3  1  0
  2  5  1  0
  3  4  1  0
  3  8  2  0
  5  6  1  0
  6  7  1  0
  2  9  1  1
  5 10  1  0
  5 11  1  0
  6 12  1  0
  6 13  1  0
  7 14  1  0
  7 15  1  0
M  CHG  1   4  -1
M  END
>  <filename_input>  (13) 
8DKO_TFB_docked.sdf

>  <pdb_id>  (13) 
8DKO_TFB

>  <pose_rank>  (13) 
12

>  <num_atoms_heavy>  (13) 
8

>  <num_torsions>  (13) 
1

>  <pose>  (13) 
[15.079762631737024, 20.614700141365887, 38.189652355458584, -3.959963447401875, 1.0871523426439338, -2.32720921454987, 3.4544964765798216]

>  <energy>  (13) 
-159.94841290282457

>  <inter_energy>  (13) 
-139.61611173077816

>  <intra_energy>  (13) 
1.3008098202172549

>  <rmsd>  (13) 
10.3415

>  <sdf_rank>  (13) 
0

$$$$

     RDKit          3D

 15 15  0  0  0  0  0  0  0  0999 V2000
   25.3023   16.7892   46.5594 O   0  0  0  0  0  0  0  0  0  0  0  0
   25.4648   15.3799   46.5844 C   0  0  2  0  0  0  0  0  0  0  0  0
   24.6006   14.8464   45.4392 C   0  0  0  0  0  0  0  0  0  0  0  0
   24.4954   13.5989   45.2673 O   0  0  0  0  0  0  0  0  0  0  0  0
   24.9816   14.8098   47.8807 C   0  0  0  0  0  0  0  0  0  0  0  0
   24.1463   15.8993   48.4898 C   0  0  0  0  0  0  0  0  0  0  0  0
   24.4618   17.1545   47.6723 C   0  0  0  0  0  0  0  0  0  0  0  0
   24.0219   15.6503   44.6662 O   0  0  0  0  0  0  0  0  0  0  0  0
   26.5236   15.1012   46.4782 H   0  0  0  0  0  0  0  0  0  0  0  0
   24.3758   13.9084   47.7061 H   0  0  0  0  0  0  0  0  0  0  0  0
   25.8111   14.5061   48.5363 H   0  0  0  0  0  0  0  0  0  0  0  0
   23.0771   15.6511   48.4177 H   0  0  0  0  0  0  0  0  0  0  0  0
   24.3692   16.0386   49.5580 H   0  0  0  0  0  0  0  0  0  0  0  0
   24.9854   17.8855   48.3059 H   0  0  0  0  0  0  0  0  0  0  0  0
   23.5277   17.6021   47.3021 H   0  0  0  0  0  0  0  0  0  0  0  0
  1  2  1  0
  1  7  1  0
  2  3  1  0
  2  5  1  0
  3  4  1  0
  3  8  2  0
  5  6  1  0
  6  7  1  0
  2  9  1  6
  5 10  1  0
  5 11  1  0
  6 12  1  0
  6 13  1  0
  7 14  1  0
  7 15  1  0
M  CHG  1   4  -1
M  END
>  <filename_input>  (14) 
8DKO_TFB_docked.sdf

>  <pdb_id>  (14) 
8DKO_TFB

>  <pose_rank>  (14) 
13

>  <num_atoms_heavy>  (14) 
8

>  <num_torsions>  (14) 
1

>  <pose>  (14) 
[25.302287633908968, 16.789176808862848, 46.559445929010266, -0.08513802288933461, -0.8959979252538821, -2.1202176070025525, -2.832237331643163]

>  <energy>  (14) 
-140.91362758126175

>  <inter_energy>  (14) 
-130.96180938554042

>  <intra_energy>  (14) 
1.321756155388014

>  <rmsd>  (14) 
9.60577

>  <sdf_rank>  (14) 
0

$$$$

     RDKit          3D

 15 15  0  0  0  0  0  0  0  0999 V2000
   10.7417   12.0789   37.4107 O   0  0  0  0  0  0  0  0  0  0  0  0
   10.8586   10.6853   37.6501 C   0  0  2  0  0  0  0  0  0  0  0  0
    9.5446   10.2716   38.3175 C   0  0  0  0  0  0  0  0  0  0  0  0
    8.4461   10.5854   37.7774 O   0  0  0  0  0  0  0  0  0  0  0  0
   11.9995   10.3962   38.5740 C   0  0  0  0  0  0  0  0  0  0  0  0
   12.3264   11.7200   39.2037 C   0  0  0  0  0  0  0  0  0  0  0  0
   11.5782   12.7607   38.3667 C   0  0  0  0  0  0  0  0  0  0  0  0
    9.5669    9.6448   39.4061 O   0  0  0  0  0  0  0  0  0  0  0  0
   11.0469   10.1371   36.7152 H   0  0  0  0  0  0  0  0  0  0  0  0
   11.7022    9.6652   39.3403 H   0  0  0  0  0  0  0  0  0  0  0  0
   12.8619    9.9624   38.0467 H   0  0  0  0  0  0  0  0  0  0  0  0
   11.9820   11.7455   40.2481 H   0  0  0  0  0  0  0  0  0  0  0  0
   13.4098   11.9096   39.2213 H   0  0  0  0  0  0  0  0  0  0  0  0
   12.3018   13.3971   37.8363 H   0  0  0  0  0  0  0  0  0  0  0  0
   10.9579   13.3895   39.0223 H   0  0  0  0  0  0  0  0  0  0  0  0
  1  2  1  0
  1  7  1  0
  2  3  1  0
  2  5  1  0
  3  4  1  0
  3  8  2  0
  5  6  1  0
  6  7  1  0
  2  9  1  6
  5 10  1  0
  5 11  1  0
  6 12  1  0
  6 13  1  0
  7 14  1  0
  7 15  1  0
M  CHG  1   4  -1
M  END
>  <filename_input>  (15) 
8DKO_TFB_docked.sdf

>  <pdb_id>  (15) 
8DKO_TFB

>  <pose_rank>  (15) 
14

>  <num_atoms_heavy>  (15) 
8

>  <num_torsions>  (15) 
1

>  <pose>  (15) 
[10.741732090038884, 12.078908129240931, 37.410716369829736, -1.485175155249421, -0.32580135656355447, -1.5341396155131783, 1.1451156847726363]

>  <energy>  (15) 
-136.0772942828016

>  <inter_energy>  (15) 
-121.7761188859925

>  <intra_energy>  (15) 
0.5994719354633402

>  <rmsd>  (15) 
11.2627

>  <sdf_rank>  (15) 
0

$$$$

     RDKit          3D

 15 15  0  0  0  0  0  0  0  0999 V2000
   15.2993   22.0184   39.1384 O   0  0  0  0  0  0  0  0  0  0  0  0
   14.6680   20.7589   38.9699 C   0  0  2  0  0  0  0  0  0  0  0  0
   15.7767   19.7993   38.5306 C   0  0  0  0  0  0  0  0  0  0  0  0
   16.8510   19.7436   39.1936 O   0  0  0  0  0  0  0  0  0  0  0  0
   13.6172   20.8266   37.9069 C   0  0  0  0  0  0  0  0  0  0  0  0
   13.9137   22.0932   37.1562 C   0  0  0  0  0  0  0  0  0  0  0  0
   14.9138   22.8551   38.0295 C   0  0  0  0  0  0  0  0  0  0  0  0
   15.6206   19.0924   37.5037 O   0  0  0  0  0  0  0  0  0  0  0  0
   14.1746   20.4356   39.8984 H   0  0  0  0  0  0  0  0  0  0  0  0
   13.6846   19.9552   37.2390 H   0  0  0  0  0  0  0  0  0  0  0  0
   12.6003   20.8203   38.3264 H   0  0  0  0  0  0  0  0  0  0  0  0
   14.3547   21.8651   36.1746 H   0  0  0  0  0  0  0  0  0  0  0  0
   13.0032   22.6808   36.9671 H   0  0  0  0  0  0  0  0  0  0  0  0
   14.4468   23.7766   38.4073 H   0  0  0  0  0  0  0  0  0  0  0  0
   15.8016   23.1183   37.4356 H   0  0  0  0  0  0  0  0  0  0  0  0
  1  2  1  0
  1  7  1  0
  2  3  1  0
  2  5  1  0
  3  4  1  0
  3  8  2  0
  5  6  1  0
  6  7  1  0
  2  9  1  1
  5 10  1  0
  5 11  1  0
  6 12  1  0
  6 13  1  0
  7 14  1  0
  7 15  1  0
M  CHG  1   4  -1
M  END
>  <filename_input>  (16) 
8DKO_TFB_docked.sdf

>  <pdb_id>  (16) 
8DKO_TFB

>  <pose_rank>  (16) 
15

>  <num_atoms_heavy>  (16) 
8

>  <num_torsions>  (16) 
1

>  <pose>  (16) 
[15.299315648783498, 22.018368222754177, 39.13840368310226, -1.532182504764198, 1.6400681997350648, 1.3661862958074846, 1.123838376890405]

>  <energy>  (16) 
-130.58132994548671

>  <inter_energy>  (16) 
-114.44520395547086

>  <intra_energy>  (16) 
0.5089470427415409

>  <rmsd>  (16) 
10.5064

>  <sdf_rank>  (16) 
0

$$$$

     RDKit          3D

 15 15  0  0  0  0  0  0  0  0999 V2000
   10.3919   11.8873   39.3711 O   0  0  0  0  0  0  0  0  0  0  0  0
   11.7459   11.5861   39.6697 C   0  0  2  0  0  0  0  0  0  0  0  0
   12.5718   12.6647   38.9642 C   0  0  0  0  0  0  0  0  0  0  0  0
   12.7480   12.5963   37.7147 O   0  0  0  0  0  0  0  0  0  0  0  0
   12.1236   10.2403   39.1358 C   0  0  0  0  0  0  0  0  0  0  0  0
   11.0438    9.9044   38.1474 C   0  0  0  0  0  0  0  0  0  0  0  0
    9.9293   10.9214   38.4061 C   0  0  0  0  0  0  0  0  0  0  0  0
   13.0864   13.5952   39.6334 O   0  0  0  0  0  0  0  0  0  0  0  0
   11.9175   11.5676   40.7561 H   0  0  0  0  0  0  0  0  0  0  0  0
   13.1044   10.2814   38.6395 H   0  0  0  0  0  0  0  0  0  0  0  0
   12.2079    9.4859   39.9319 H   0  0  0  0  0  0  0  0  0  0  0  0
   11.4204    9.9988   37.1182 H   0  0  0  0  0  0  0  0  0  0  0  0
   10.6896    8.8694   38.2628 H   0  0  0  0  0  0  0  0  0  0  0  0
    9.0413   10.4040   38.7983 H   0  0  0  0  0  0  0  0  0  0  0  0
    9.6646   11.4303   37.4675 H   0  0  0  0  0  0  0  0  0  0  0  0
  1  2  1  0
  1  7  1  0
  2  3  1  0
  2  5  1  0
  3  4  1  0
  3  8  2  0
  5  6  1  0
  6  7  1  0
  2  9  1  1
  5 10  1  0
  5 11  1  0
  6 12  1  0
  6 13  1  0
  7 14  1  0
  7 15  1  0
M  CHG  1   4  -1
M  END
>  <filename_input>  (17) 
8DKO_TFB_docked.sdf

>  <pdb_id>  (17) 
8DKO_TFB

>  <pose_rank>  (17) 
16

>  <num_atoms_heavy>  (17) 
8

>  <num_torsions>  (17) 
1

>  <pose>  (17) 
[10.391939386317702, 11.88732492100161, 39.37114475760284, -3.527845291202245, 0.2563429769420453, 1.75697332734396, -1.0919704983271183]

>  <energy>  (17) 
-123.4121067434194

>  <inter_energy>  (17) 
-117.44952644979408

>  <intra_energy>  (17) 
6.302668012936528

>  <rmsd>  (17) 
10.2283

>  <sdf_rank>  (17) 
0

$$$$

     RDKit          3D

 15 15  0  0  0  0  0  0  0  0999 V2000
   14.2370   22.2525   39.8721 O   0  0  0  0  0  0  0  0  0  0  0  0
   15.3111   21.7561   39.0890 C   0  0  2  0  0  0  0  0  0  0  0  0
   16.2740   22.9338   38.9192 C   0  0  0  0  0  0  0  0  0  0  0  0
   16.5645   23.6499   39.9191 O   0  0  0  0  0  0  0  0  0  0  0  0
   14.8294   21.3083   37.7450 C   0  0  0  0  0  0  0  0  0  0  0  0
   13.4686   21.9273   37.6008 C   0  0  0  0  0  0  0  0  0  0  0  0
   13.1011   22.4247   39.0012 C   0  0  0  0  0  0  0  0  0  0  0  0
   16.7498   23.1936   37.7857 O   0  0  0  0  0  0  0  0  0  0  0  0
   15.7864   20.8897   39.5722 H   0  0  0  0  0  0  0  0  0  0  0  0
   15.5038   21.6654   36.9527 H   0  0  0  0  0  0  0  0  0  0  0  0
   14.7989   20.2121   37.6584 H   0  0  0  0  0  0  0  0  0  0  0  0
   13.5002   22.7661   36.8899 H   0  0  0  0  0  0  0  0  0  0  0  0
   12.7304   21.2097   37.2135 H   0  0  0  0  0  0  0  0  0  0  0  0
   12.2492   21.8453   39.3868 H   0  0  0  0  0  0  0  0  0  0  0  0
   12.8234   23.4881   38.9575 H   0  0  0  0  0  0  0  0  0  0  0  0
  1  2  1  0
  1  7  1  0
  2  3  1  0
  2  5  1  0
  3  4  1  0
  3  8  2  0
  5  6  1  0
  6  7  1  0
  2  9  1  1
  5 10  1  0
  5 11  1  0
  6 12  1  0
  6 13  1  0
  7 14  1  0
  7 15  1  0
M  CHG  1   4  -1
M  END
>  <filename_input>  (18) 
8DKO_TFB_docked.sdf

>  <pdb_id>  (18) 
8DKO_TFB

>  <pose_rank>  (18) 
17

>  <num_atoms_heavy>  (18) 
8

>  <num_torsions>  (18) 
1

>  <pose>  (18) 
[14.23700083214586, 22.252462151620776, 39.87207448092722, -2.32378645312307, -0.27532790904913823, 1.9760599989850014, -5.255295752497972]

>  <energy>  (18) 
-122.27566338479791

>  <inter_energy>  (18) 
-114.68009968119173

>  <intra_energy>  (18) 
0.18319187704486298

>  <rmsd>  (18) 
11.0167

>  <sdf_rank>  (18) 
0

$$$$

     RDKit          3D

 15 15  0  0  0  0  0  0  0  0999 V2000
   15.3256   21.5604   40.3551 O   0  0  0  0  0  0  0  0  0  0  0  0
   15.6187   21.9287   39.0166 C   0  0  2  0  0  0  0  0  0  0  0  0
   14.2933   21.8145   38.2596 C   0  0  0  0  0  0  0  0  0  0  0  0
   14.0795   20.8075   37.5266 O   0  0  0  0  0  0  0  0  0  0  0  0
   16.6196   20.9945   38.4130 C   0  0  0  0  0  0  0  0  0  0  0  0
   16.6235   19.7989   39.3220 C   0  0  0  0  0  0  0  0  0  0  0  0
   15.8718   20.2450   40.5787 C   0  0  0  0  0  0  0  0  0  0  0  0
   13.4389   22.7308   38.3537 O   0  0  0  0  0  0  0  0  0  0  0  0
   16.0452   22.9415   38.9687 H   0  0  0  0  0  0  0  0  0  0  0  0
   16.3169   20.7068   37.3953 H   0  0  0  0  0  0  0  0  0  0  0  0
   17.6157   21.4528   38.3246 H   0  0  0  0  0  0  0  0  0  0  0  0
   16.1092   18.9511   38.8459 H   0  0  0  0  0  0  0  0  0  0  0  0
   17.6450   19.4623   39.5528 H   0  0  0  0  0  0  0  0  0  0  0  0
   16.5647   20.2734   41.4326 H   0  0  0  0  0  0  0  0  0  0  0  0
   15.0591   19.5367   40.7975 H   0  0  0  0  0  0  0  0  0  0  0  0
  1  2  1  0
  1  7  1  0
  2  3  1  0
  2  5  1  0
  3  4  1  0
  3  8  2  0
  5  6  1  0
  6  7  1  0
  2  9  1  1
  5 10  1  0
  5 11  1  0
  6 12  1  0
  6 13  1  0
  7 14  1  0
  7 15  1  0
M  CHG  1   4  -1
M  END
>  <filename_input>  (19) 
8DKO_TFB_docked.sdf

>  <pdb_id>  (19) 
8DKO_TFB

>  <pose_rank>  (19) 
18

>  <num_atoms_heavy>  (19) 
8

>  <num_torsions>  (19) 
1

>  <pose>  (19) 
[15.325593232940243, 21.56035457761487, 40.355136712948585, -1.0293046148767362, -2.945334995019535, 3.597735440865273, -1.5357077725062034]

>  <energy>  (19) 
-117.7037777930742

>  <inter_energy>  (19) 
-86.74184261043959

>  <intra_energy>  (19) 
3.2147881232044844

>  <rmsd>  (19) 
10.0115

>  <sdf_rank>  (19) 
0

$$$$

     RDKit          3D

 15 15  0  0  0  0  0  0  0  0999 V2000
   23.1993   15.8272   48.6068 O   0  0  0  0  0  0  0  0  0  0  0  0
   24.1392   16.7357   48.0550 C   0  0  2  0  0  0  0  0  0  0  0  0
   23.5707   17.1373   46.6918 C   0  0  0  0  0  0  0  0  0  0  0  0
   24.3056   17.7506   45.8668 O   0  0  0  0  0  0  0  0  0  0  0  0
   25.4697   16.0779   47.8660 C   0  0  0  0  0  0  0  0  0  0  0  0
   25.1853   14.6061   47.9594 C   0  0  0  0  0  0  0  0  0  0  0  0
   23.7667   14.5044   48.5255 C   0  0  0  0  0  0  0  0  0  0  0  0
   22.3741   16.8755   46.4120 O   0  0  0  0  0  0  0  0  0  0  0  0
   24.2920   17.5995   48.7187 H   0  0  0  0  0  0  0  0  0  0  0  0
   25.8904   16.3297   46.8813 H   0  0  0  0  0  0  0  0  0  0  0  0
   26.2063   16.4073   48.6136 H   0  0  0  0  0  0  0  0  0  0  0  0
   25.2377   14.1396   46.9647 H   0  0  0  0  0  0  0  0  0  0  0  0
   25.9184   14.0860   48.5937 H   0  0  0  0  0  0  0  0  0  0  0  0
   23.8011   14.0552   49.5290 H   0  0  0  0  0  0  0  0  0  0  0  0
   23.1485   13.8738   47.8695 H   0  0  0  0  0  0  0  0  0  0  0  0
  1  2  1  0
  1  7  1  0
  2  3  1  0
  2  5  1  0
  3  4  1  0
  3  8  2  0
  5  6  1  0
  6  7  1  0
  2  9  1  1
  5 10  1  0
  5 11  1  0
  6 12  1  0
  6 13  1  0
  7 14  1  0
  7 15  1  0
M  CHG  1   4  -1
M  END
>  <filename_input>  (20) 
8DKO_TFB_docked.sdf

>  <pdb_id>  (20) 
8DKO_TFB

>  <pose_rank>  (20) 
19

>  <num_atoms_heavy>  (20) 
8

>  <num_torsions>  (20) 
1

>  <pose>  (20) 
[23.199260223790468, 15.827171182240205, 48.60677508204318, -3.70626240268239, -2.2027326308175406, 2.376582182453193, -2.676391099215379]

>  <energy>  (20) 
-111.9990318882362

>  <inter_energy>  (20) 
-90.20915751902072

>  <intra_energy>  (20) 
0.5209608655738098

>  <rmsd>  (20) 
8.97108

>  <sdf_rank>  (20) 
0

$$$$

     RDKit          3D

 15 15  0  0  0  0  0  0  0  0999 V2000
   24.9032   13.9080   41.9338 O   0  0  0  0  0  0  0  0  0  0  0  0
   25.2702   14.5399   43.1500 C   0  0  2  0  0  0  0  0  0  0  0  0
   24.1192   14.2628   44.1204 C   0  0  0  0  0  0  0  0  0  0  0  0
   24.2854   14.4629   45.3570 O   0  0  0  0  0  0  0  0  0  0  0  0
   25.4179   16.0168   42.9608 C   0  0  0  0  0  0  0  0  0  0  0  0
   24.7322   16.3055   41.6561 C   0  0  0  0  0  0  0  0  0  0  0  0
   24.5158   14.9382   41.0027 C   0  0  0  0  0  0  0  0  0  0  0  0
   23.0280   13.8178   43.6848 O   0  0  0  0  0  0  0  0  0  0  0  0
   26.2336   14.1589   43.5196 H   0  0  0  0  0  0  0  0  0  0  0  0
   24.9329   16.5635   43.7829 H   0  0  0  0  0  0  0  0  0  0  0  0
   26.4717   16.3320   42.9552 H   0  0  0  0  0  0  0  0  0  0  0  0
   23.7684   16.8064   41.8298 H   0  0  0  0  0  0  0  0  0  0  0  0
   25.3283   16.9751   41.0186 H   0  0  0  0  0  0  0  0  0  0  0  0
   25.1291   14.8628   40.0927 H   0  0  0  0  0  0  0  0  0  0  0  0
   23.4559   14.8176   40.7340 H   0  0  0  0  0  0  0  0  0  0  0  0
  1  2  1  0
  1  7  1  0
  2  3  1  0
  2  5  1  0
  3  4  1  0
  3  8  2  0
  5  6  1  0
  6  7  1  0
  2  9  1  1
  5 10  1  0
  5 11  1  0
  6 12  1  0
  6 13  1  0
  7 14  1  0
  7 15  1  0
M  CHG  1   4  -1
M  END
>  <filename_input>  (21) 
8DKO_TFB_docked.sdf

>  <pdb_id>  (21) 
8DKO_TFB

>  <pose_rank>  (21) 
20

>  <num_atoms_heavy>  (21) 
8

>  <num_torsions>  (21) 
1

>  <pose>  (21) 
[24.903249104899505, 13.907977699996287, 41.93382056526747, -1.6088608478661788, -2.3915733021875827, -0.44778549033072307, 3.129838503090716]

>  <energy>  (21) 
-85.96641621792789

>  <inter_energy>  (21) 
-80.20203969480814

>  <intra_energy>  (21) 
3.361389982288565

>  <rmsd>  (21) 
10.6469

>  <sdf_rank>  (21) 
0

$$$$

     RDKit          3D

 15 15  0  0  0  0  0  0  0  0999 V2000
   24.5283   16.0355   44.2535 O   0  0  0  0  0  0  0  0  0  0  0  0
   25.4563   15.0942   44.7693 C   0  0  2  0  0  0  0  0  0  0  0  0
   24.9801   13.7295   44.2654 C   0  0  0  0  0  0  0  0  0  0  0  0
   25.0616   12.7223   45.0242 O   0  0  0  0  0  0  0  0  0  0  0  0
   25.4497   15.1030   46.2655 C   0  0  0  0  0  0  0  0  0  0  0  0
   24.1814   15.8161   46.6381 C   0  0  0  0  0  0  0  0  0  0  0  0
   23.6908   16.4697   45.3437 C   0  0  0  0  0  0  0  0  0  0  0  0
   24.5340   13.6160   43.0963 O   0  0  0  0  0  0  0  0  0  0  0  0
   26.4807   15.3290   44.4447 H   0  0  0  0  0  0  0  0  0  0  0  0
   25.4471   14.0759   46.6593 H   0  0  0  0  0  0  0  0  0  0  0  0
   26.3410   15.5949   46.6823 H   0  0  0  0  0  0  0  0  0  0  0  0
   23.4349   15.1023   47.0164 H   0  0  0  0  0  0  0  0  0  0  0  0
   24.3459   16.5565   47.4348 H   0  0  0  0  0  0  0  0  0  0  0  0
   23.7466   17.5641   45.4387 H   0  0  0  0  0  0  0  0  0  0  0  0
   22.6480   16.1774   45.1512 H   0  0  0  0  0  0  0  0  0  0  0  0
  1  2  1  0
  1  7  1  0
  2  3  1  0
  2  5  1  0
  3  4  1  0
  3  8  2  0
  5  6  1  0
  6  7  1  0
  2  9  1  6
  5 10  1  0
  5 11  1  0
  6 12  1  0
  6 13  1  0
  7 14  1  0
  7 15  1  0
M  CHG  1   4  -1
M  END
>  <filename_input>  (22) 
8DKO_TFB_docked.sdf

>  <pdb_id>  (22) 
8DKO_TFB

>  <pose_rank>  (22) 
21

>  <num_atoms_heavy>  (22) 
8

>  <num_torsions>  (22) 
1

>  <pose>  (22) 
[24.528303787680258, 16.035477378276923, 44.253513303018416, -0.2651577493308582, -1.1379887570528942, -1.31393764403329, -2.22837855214761]

>  <energy>  (22) 
-59.02798833359903

>  <inter_energy>  (22) 
-63.02689671997177

>  <intra_energy>  (22) 
5.320175326698601e-05

>  <rmsd>  (22) 
9.92289

>  <sdf_rank>  (22) 
0

$$$$

     RDKit          3D

 15 15  0  0  0  0  0  0  0  0999 V2000
   22.1423    8.5431   45.1706 O   0  0  0  0  0  0  0  0  0  0  0  0
   23.2297    8.8573   46.0262 C   0  0  2  0  0  0  0  0  0  0  0  0
   24.0804    9.8692   45.2546 C   0  0  0  0  0  0  0  0  0  0  0  0
   23.5743   10.9752   44.9116 O   0  0  0  0  0  0  0  0  0  0  0  0
   24.0476    7.6391   46.3192 C   0  0  0  0  0  0  0  0  0  0  0  0
   23.6340    6.6409   45.2759 C   0  0  0  0  0  0  0  0  0  0  0  0
   22.3654    7.2197   44.6441 C   0  0  0  0  0  0  0  0  0  0  0  0
   25.2653    9.5848   44.9484 O   0  0  0  0  0  0  0  0  0  0  0  0
   22.8746    9.2531   46.9892 H   0  0  0  0  0  0  0  0  0  0  0  0
   25.1212    7.8638   46.2367 H   0  0  0  0  0  0  0  0  0  0  0  0
   23.8846    7.2647   47.3406 H   0  0  0  0  0  0  0  0  0  0  0  0
   24.4234    6.5254   44.5187 H   0  0  0  0  0  0  0  0  0  0  0  0
   23.4593    5.6445   45.7079 H   0  0  0  0  0  0  0  0  0  0  0  0
   21.5063    6.5767   44.8858 H   0  0  0  0  0  0  0  0  0  0  0  0
   22.4828    7.2686   43.5515 H   0  0  0  0  0  0  0  0  0  0  0  0
  1  2  1  0
  1  7  1  0
  2  3  1  0
  2  5  1  0
  3  4  1  0
  3  8  2  0
  5  6  1  0
  6  7  1  0
  2  9  1  1
  5 10  1  0
  5 11  1  0
  6 12  1  0
  6 13  1  0
  7 14  1  0
  7 15  1  0
M  CHG  1   4  -1
M  END
>  <filename_input>  (23) 
8DKO_TFB_docked.sdf

>  <pdb_id>  (23) 
8DKO_TFB

>  <pose_rank>  (23) 
22

>  <num_atoms_heavy>  (23) 
8

>  <num_torsions>  (23) 
1

>  <pose>  (23) 
[22.142299982157613, 8.543140116823963, 45.17056271303879, -4.281442680207208, 0.5849089221694127, 0.7590847750322539, 1.3042459371377781]

>  <energy>  (23) 
-108.36108040831613

>  <inter_energy>  (23) 
-83.60904922951472

>  <intra_energy>  (23) 
1.4310990085109034

>  <rmsd>  (23) 
11.378

>  <sdf_rank>  (23) 
0

$$$$

     RDKit          3D

 15 15  0  0  0  0  0  0  0  0999 V2000
   24.8943   16.1310   43.5631 O   0  0  0  0  0  0  0  0  0  0  0  0
   25.3874   14.8874   44.0358 C   0  0  2  0  0  0  0  0  0  0  0  0
   24.3953   13.8350   43.5346 C   0  0  0  0  0  0  0  0  0  0  0  0
   24.2913   12.7351   44.1480 O   0  0  0  0  0  0  0  0  0  0  0  0
   25.4271   14.8627   45.5313 C   0  0  0  0  0  0  0  0  0  0  0  0
   24.5563   16.0103   45.9560 C   0  0  0  0  0  0  0  0  0  0  0  0
   24.3286   16.8352   44.6867 C   0  0  0  0  0  0  0  0  0  0  0  0
   23.7098   14.0620   42.5064 O   0  0  0  0  0  0  0  0  0  0  0  0
   26.4114   14.7053   43.6777 H   0  0  0  0  0  0  0  0  0  0  0  0
   25.0288   13.9114   45.9141 H   0  0  0  0  0  0  0  0  0  0  0  0
   26.4517   14.9516   45.9216 H   0  0  0  0  0  0  0  0  0  0  0  0
   23.5990   15.6415   46.3528 H   0  0  0  0  0  0  0  0  0  0  0  0
   25.0232   16.6061   46.7542 H   0  0  0  0  0  0  0  0  0  0  0  0
   24.8162   17.8157   44.7913 H   0  0  0  0  0  0  0  0  0  0  0  0
   23.2503   16.9842   44.5281 H   0  0  0  0  0  0  0  0  0  0  0  0
  1  2  1  0
  1  7  1  0
  2  3  1  0
  2  5  1  0
  3  4  1  0
  3  8  2  0
  5  6  1  0
  6  7  1  0
  2  9  1  6
  5 10  1  0
  5 11  1  0
  6 12  1  0
  6 13  1  0
  7 14  1  0
  7 15  1  0
M  CHG  1   4  -1
M  END
>  <filename_input>  (24) 
8DKO_TFB_docked.sdf

>  <pdb_id>  (24) 
8DKO_TFB

>  <pose_rank>  (24) 
23

>  <num_atoms_heavy>  (24) 
8

>  <num_torsions>  (24) 
1

>  <pose>  (24) 
[24.894275741306654, 16.131046787897063, 43.563099395125214, -0.5239665740990993, -1.0782877170713656, -1.6683120113207826, -2.473752577071281]

>  <energy>  (24) 
-106.72087091608465

>  <inter_energy>  (24) 
-82.88566969562422

>  <intra_energy>  (24) 
0.01022278972822342

>  <rmsd>  (24) 
10.0091

>  <sdf_rank>  (24) 
0

$$$$

     RDKit          3D

 15 15  0  0  0  0  0  0  0  0999 V2000
   10.4010   12.1367   38.8698 O   0  0  0  0  0  0  0  0  0  0  0  0
    9.5181   11.1982   39.4639 C   0  0  2  0  0  0  0  0  0  0  0  0
    8.8126   11.9551   40.5919 C   0  0  0  0  0  0  0  0  0  0  0  0
    8.5530   11.3582   41.6751 O   0  0  0  0  0  0  0  0  0  0  0  0
   10.2752   10.0418   40.0369 C   0  0  0  0  0  0  0  0  0  0  0  0
   11.6979   10.5168   40.1144 C   0  0  0  0  0  0  0  0  0  0  0  0
   11.7418   11.7976   39.2771 C   0  0  0  0  0  0  0  0  0  0  0  0
    8.4770   13.1543   40.4253 O   0  0  0  0  0  0  0  0  0  0  0  0
    8.8130   10.7935   38.7229 H   0  0  0  0  0  0  0  0  0  0  0  0
    9.8961    9.7880   41.0379 H   0  0  0  0  0  0  0  0  0  0  0  0
   10.1728    9.1335   39.4248 H   0  0  0  0  0  0  0  0  0  0  0  0
   11.9773   10.7282   41.1570 H   0  0  0  0  0  0  0  0  0  0  0  0
   12.4040    9.7596   39.7430 H   0  0  0  0  0  0  0  0  0  0  0  0
   12.3679   11.6357   38.3874 H   0  0  0  0  0  0  0  0  0  0  0  0
   12.1682   12.6177   39.8735 H   0  0  0  0  0  0  0  0  0  0  0  0
  1  2  1  0
  1  7  1  0
  2  3  1  0
  2  5  1  0
  3  4  1  0
  3  8  2  0
  5  6  1  0
  6  7  1  0
  2  9  1  6
  5 10  1  0
  5 11  1  0
  6 12  1  0
  6 13  1  0
  7 14  1  0
  7 15  1  0
M  CHG  1   4  -1
M  END
>  <filename_input>  (25) 
8DKO_TFB_docked.sdf

>  <pdb_id>  (25) 
8DKO_TFB

>  <pose_rank>  (25) 
24

>  <num_atoms_heavy>  (25) 
8

>  <num_torsions>  (25) 
1

>  <pose>  (25) 
[10.401035157011606, 12.136699337382307, 38.869831372897366, 2.5397212590588034, -0.7284039210593624, 2.1068720358950404, -2.2476489381352645]

>  <energy>  (25) 
-104.41343501984373

>  <inter_energy>  (25) 
-78.20796874031512

>  <intra_energy>  (25) 
0.0

>  <rmsd>  (25) 
10.2401

>  <sdf_rank>  (25) 
0

$$$$

     RDKit          3D

 15 15  0  0  0  0  0  0  0  0999 V2000
   13.9770   15.7040   47.7820 O   0  0  0  0  0  0  0  0  0  0  0  0
   14.8080   16.4200   46.8820 C   0  0  2  0  0  0  0  0  0  0  0  0
   15.3400   15.3770   45.8960 C   0  0  0  0  0  0  0  0  0  0  0  0
   15.2190   14.1480   46.1640 O   0  0  0  0  0  0  0  0  0  0  0  0
   15.9550   17.0540   47.6040 C   0  0  0  0  0  0  0  0  0  0  0  0
   16.0030   16.3560   48.9330 C   0  0  0  0  0  0  0  0  0  0  0  0
   14.6810   15.5910   49.0350 C   0  0  0  0  0  0  0  0  0  0  0  0
   15.9120   15.7490   44.8410 O   0  0  0  0  0  0  0  0  0  0  0  0
   14.2496   17.2255   46.3825 H   0  0  0  0  0  0  0  0  0  0  0  0
   16.8936   16.9005   47.0513 H   0  0  0  0  0  0  0  0  0  0  0  0
   15.8295   18.1417   47.7099 H   0  0  0  0  0  0  0  0  0  0  0  0
   16.8546   15.6608   48.9726 H   0  0  0  0  0  0  0  0  0  0  0  0
   16.1320   17.0648   49.7642 H   0  0  0  0  0  0  0  0  0  0  0  0
   14.0684   16.0187   49.8424 H   0  0  0  0  0  0  0  0  0  0  0  0
   14.8799   14.5319   49.2560 H   0  0  0  0  0  0  0  0  0  0  0  0
  1  2  1  0
  1  7  1  0
  2  3  1  0
  2  5  1  0
  3  4  1  0
  3  8  2  0
  5  6  1  0
  6  7  1  0
  2  9  1  6
  5 10  1  0
  5 11  1  0
  6 12  1  0
  6 13  1  0
  7 14  1  0
  7 15  1  0
M  CHG  1   4  -1
M  END
>  <filename_input>  (26) 
8DKO_TFB_docked.sdf

>  <pdb_id>  (26) 
8DKO_TFB

>  <pose_rank>  (26) 
25

>  <num_atoms_heavy>  (26) 
8

>  <num_torsions>  (26) 
1

>  <pose>  (26) 
[13.977, 15.704, 47.782, 1e-06, 1e-06, 1e-06, 0.0]

>  <energy>  (26) 
-570.5599175363224

>  <inter_energy>  (26) 
-589.5056035472126

>  <intra_energy>  (26) 
3.5096444042511994

>  <rmsd>  (26) 
0.0

>  <sdf_rank>  (26) 
0

$$$$
