
     RDKit          3D

 82 84  0  0  0  0  0  0  0  0999 V2000
   65.6171   -1.3636    3.7519 N   0  0  0  0  0  0  0  0  0  0  0  0
   66.8642   -1.1745    4.3145 C   0  0  0  0  0  0  0  0  0  0  0  0
   66.8586   -0.5591    5.5404 N   0  0  0  0  0  0  0  0  0  0  0  0
   65.7546   -0.1274    6.2418 C   0  0  0  0  0  0  0  0  0  0  0  0
   64.4938   -0.3618    5.5926 C   0  0  0  0  0  0  0  0  0  0  0  0
   64.4660   -0.9597    4.3921 C   0  0  0  0  0  0  0  0  0  0  0  0
   67.8975   -1.5668    3.7883 O   0  0  0  0  0  0  0  0  0  0  0  0
   65.9026    0.3894    7.3407 O   0  0  0  0  0  0  0  0  0  0  0  0
   65.5516   -2.0528    2.4700 C   0  0  1  0  0  0  0  0  0  0  0  0
   64.8277   -3.3841    2.5484 C   0  0  2  0  0  0  0  0  0  0  0  0
   65.6624   -4.4105    3.0860 O   0  0  0  0  0  0  0  0  0  0  0  0
   64.4475   -3.5811    1.0763 C   0  0  1  0  0  0  0  0  0  0  0  0
   64.2386   -2.1453    0.5766 C   0  0  2  0  0  0  0  0  0  0  0  0
   64.7581   -1.2766    1.6074 O   0  0  0  0  0  0  0  0  0  0  0  0
   65.5290   -4.1992    0.3782 O   0  0  0  0  0  0  0  0  0  0  0  0
   62.8145   -1.7474    0.2648 C   0  0  0  0  0  0  0  0  0  0  0  0
   62.7178   -0.3050    0.3761 O   0  0  0  0  0  0  0  0  0  0  0  0
   61.8573    0.4045    1.4897 P   0  0  1  0  0  0  0  0  0  0  0  0
   61.4842   -0.5631    2.5353 O   0  0  0  0  0  0  0  0  0  0  0  0
   62.5185    1.6933    1.9292 O   0  0  0  0  0  0  0  0  0  0  0  0
   60.5783    0.8280    0.6466 O   0  0  0  0  0  0  0  0  0  0  0  0
   59.3636    1.8172    0.8791 P   0  0  2  0  0  0  0  0  0  0  0  0
   59.7318    3.1965    0.4138 O   0  0  0  0  0  0  0  0  0  0  0  0
   58.8513    1.6891    2.2868 O   0  0  0  0  0  0  0  0  0  0  0  0
   58.2513    1.2741   -0.1689 O   0  0  0  0  0  0  0  0  0  0  0  0
   57.1359    0.5877    0.3373 C   0  0  2  0  0  0  0  0  0  0  0  0
   56.8816   -0.6128   -0.5620 C   0  0  2  0  0  0  0  0  0  0  0  0
   58.0684   -1.4532   -0.5906 N   0  0  0  0  0  0  0  0  0  0  0  0
   58.2583   -2.4995    0.2205 C   0  0  0  0  0  0  0  0  0  0  0  0
   57.4284   -2.8334    1.0556 O   0  0  0  0  0  0  0  0  0  0  0  0
   59.5589   -3.2306    0.0612 C   0  0  0  0  0  0  0  0  0  0  0  0
   56.5336   -0.0915   -1.9569 C   0  0  1  0  0  0  0  0  0  0  0  0
   56.1231   -1.2226   -2.7375 O   0  0  0  0  0  0  0  0  0  0  0  0
   55.2812    0.7592   -1.8217 C   0  0  2  0  0  0  0  0  0  0  0  0
   54.8789    1.2769   -3.0852 O   0  0  0  0  0  0  0  0  0  0  0  0
   55.5328    1.9139   -0.8545 C   0  0  2  0  0  0  0  0  0  0  0  0
   55.9850    1.4125    0.4232 O   0  0  0  0  0  0  0  0  0  0  0  0
   54.2726    2.7103   -0.5786 C   0  0  0  0  0  0  0  0  0  0  0  0
   54.4969    4.1231   -0.7136 O   0  0  0  0  0  0  0  0  0  0  0  0
   54.8530   -1.8025   -2.3911 C   0  0  1  0  0  0  0  0  0  0  0  0
   54.1792   -2.3244   -3.6511 C   0  0  0  0  0  0  0  0  0  0  0  0
   53.9844   -1.5711   -4.6022 O   0  0  0  0  0  0  0  0  0  0  0  0
   55.1142   -2.9351   -1.4242 C   0  0  0  0  0  0  0  0  0  0  0  0
   53.8458   -3.6219   -3.6571 N   0  0  0  0  0  0  0  0  0  0  0  0
   53.1333   -4.2424   -4.7642 C   0  0  2  0  0  0  0  0  0  0  0  0
   51.6367   -4.2921   -4.5032 C   0  0  0  0  0  0  0  0  0  0  0  0
   50.8433   -3.4812   -4.9531 O   0  0  0  0  0  0  0  0  0  0  0  0
   51.3120   -5.2767   -3.6925 O   0  0  0  0  0  0  0  0  0  0  0  0
   53.6211   -5.6720   -4.9761 C   0  0  0  0  0  0  0  0  0  0  0  0
   67.7757   -0.4035    5.9826 H   0  0  0  0  0  0  0  0  0  0  0  0
   63.5563   -0.0524    6.0777 H   0  0  0  0  0  0  0  0  0  0  0  0
   63.4954   -1.1327    3.9044 H   0  0  0  0  0  0  0  0  0  0  0  0
   66.5892   -2.2067    2.1389 H   0  0  0  0  0  0  0  0  0  0  0  0
   63.9611   -3.4163    3.2251 H   0  0  0  0  0  0  0  0  0  0  0  0
   65.6335   -4.3750    4.0750 H   0  0  0  0  0  0  0  0  0  0  0  0
   63.5655   -4.2216    0.9285 H   0  0  0  0  0  0  0  0  0  0  0  0
   64.7570   -2.0628   -0.3901 H   0  0  0  0  0  0  0  0  0  0  0  0
   66.1751   -4.5685    1.0311 H   0  0  0  0  0  0  0  0  0  0  0  0
   62.5544   -2.0612   -0.7569 H   0  0  0  0  0  0  0  0  0  0  0  0
   62.1198   -2.2323    0.9664 H   0  0  0  0  0  0  0  0  0  0  0  0
   57.3485    0.2628    1.3666 H   0  0  0  0  0  0  0  0  0  0  0  0
   56.0471   -1.2227   -0.1856 H   0  0  0  0  0  0  0  0  0  0  0  0
   58.8050   -1.2296   -1.2750 H   0  0  0  0  0  0  0  0  0  0  0  0
   59.9727   -3.4632    1.0535 H   0  0  0  0  0  0  0  0  0  0  0  0
   59.3886   -4.1652   -0.4933 H   0  0  0  0  0  0  0  0  0  0  0  0
   60.2688   -2.5993   -0.4933 H   0  0  0  0  0  0  0  0  0  0  0  0
   57.3810    0.4557   -2.3956 H   0  0  0  0  0  0  0  0  0  0  0  0
   54.4759    0.1203   -1.4302 H   0  0  0  0  0  0  0  0  0  0  0  0
   54.2772    2.0510   -2.9483 H   0  0  0  0  0  0  0  0  0  0  0  0
   56.2888    2.5535   -1.3335 H   0  0  0  0  0  0  0  0  0  0  0  0
   53.4935    2.4032   -1.2918 H   0  0  0  0  0  0  0  0  0  0  0  0
   53.9600    2.5100    0.4569 H   0  0  0  0  0  0  0  0  0  0  0  0
   54.5621    4.5342    0.1846 H   0  0  0  0  0  0  0  0  0  0  0  0
   54.1905   -1.0573   -1.9266 H   0  0  0  0  0  0  0  0  0  0  0  0
   55.0285   -2.5635   -0.3924 H   0  0  0  0  0  0  0  0  0  0  0  0
   54.3769   -3.7348   -1.5883 H   0  0  0  0  0  0  0  0  0  0  0  0
   56.1273   -3.3311   -1.5883 H   0  0  0  0  0  0  0  0  0  0  0  0
   54.1038   -4.2029   -2.8467 H   0  0  0  0  0  0  0  0  0  0  0  0
   53.3305   -3.6307   -5.6569 H   0  0  0  0  0  0  0  0  0  0  0  0
   53.7848   -6.1521   -4.0001 H   0  0  0  0  0  0  0  0  0  0  0  0
   52.8650   -6.2375   -5.5406 H   0  0  0  0  0  0  0  0  0  0  0  0
   54.5651   -5.6575   -5.5406 H   0  0  0  0  0  0  0  0  0  0  0  0
  1  2  1  0
  1  6  1  0
  9  1  1  0
  2  3  1  0
  2  7  2  0
  3  4  1  0
  4  5  1  0
  4  8  2  0
  5  6  2  0
  9 10  1  0
  9 14  1  0
 10 11  1  0
 10 12  1  0
 12 13  1  0
 12 15  1  0
 13 14  1  0
 13 16  1  0
 16 17  1  0
 17 18  1  0
 18 19  2  0
 18 20  1  1
 18 21  1  0
 21 22  1  0
 22 23  2  0
 22 24  1  1
 22 25  1  0
 26 25  1  0
 26 27  1  0
 26 37  1  0
 27 28  1  0
 27 32  1  0
 28 29  1  0
 29 30  2  0
 29 31  1  0
 32 33  1  0
 32 34  1  0
 33 40  1  0
 34 35  1  0
 34 36  1  0
 36 37  1  0
 36 38  1  0
 38 39  1  0
 40 41  1  0
 40 43  1  0
 41 42  2  0
 41 44  1  0
 44 45  1  0
 45 46  1  0
 45 49  1  0
 46 47  2  0
 46 48  1  0
  3 50  1  0
  5 51  1  0
  6 52  1  0
  9 53  1  6
 10 54  1  1
 11 55  1  0
 12 56  1  1
 13 57  1  6
 15 58  1  0
 16 59  1  0
 16 60  1  0
 26 61  1  1
 27 62  1  1
 28 63  1  0
 31 64  1  0
 31 65  1  0
 31 66  1  0
 32 67  1  6
 34 68  1  1
 35 69  1  0
 36 70  1  6
 38 71  1  0
 38 72  1  0
 39 73  1  0
 40 74  1  1
 43 75  1  0
 43 76  1  0
 43 77  1  0
 44 78  1  0
 45 79  1  6
 49 80  1  0
 49 81  1  0
 49 82  1  0
M  CHG  3  20  -1  24  -1  48  -1
M  END
>  <filename_input>  (1) 
8DP2_UMA_docked.sdf

>  <pdb_id>  (1) 
8DP2_UMA

>  <pose_rank>  (1) 
0

>  <num_atoms_heavy>  (1) 
49

>  <num_torsions>  (1) 
15

>  <pose>  (1) 
[58.2512793092091, 1.2741266314264796, -0.16886081524595717, -2.6514082770538145, 4.032623658456103, -3.364623765960159, -0.022899322741283503, -0.27388240063318964, 2.8763247695743437, 3.1527611193813994, -18.521434645646966, 8.08493430130811, -0.055185876196445986, 1.934919453411974, 0.5465907102447657, -0.5536967062529234, -6.149916350218267, -2.652510341911427, 1.960504863989538, 1.8844594578489369, 0.07479934948260608]

>  <energy>  (1) 
-945.0114482545061

>  <inter_energy>  (1) 
-969.3281007913013

>  <intra_energy>  (1) 
36.74767699966251

>  <rmsd>  (1) 
1.85368

>  <sdf_rank>  (1) 
0

$$$$

     RDKit          3D

 82 84  0  0  0  0  0  0  0  0999 V2000
   63.6577   -0.8590    2.9461 N   0  0  0  0  0  0  0  0  0  0  0  0
   64.4092   -0.7373    4.0985 C   0  0  0  0  0  0  0  0  0  0  0  0
   64.8934   -1.9183    4.6008 N   0  0  0  0  0  0  0  0  0  0  0  0
   64.7061   -3.1773    4.0745 C   0  0  0  0  0  0  0  0  0  0  0  0
   63.9161   -3.2215    2.8744 C   0  0  0  0  0  0  0  0  0  0  0  0
   63.4265   -2.0838    2.3594 C   0  0  0  0  0  0  0  0  0  0  0  0
   64.6687    0.3431    4.6121 O   0  0  0  0  0  0  0  0  0  0  0  0
   65.2192   -4.1427    4.6233 O   0  0  0  0  0  0  0  0  0  0  0  0
   63.1519    0.3640    2.3369 C   0  0  1  0  0  0  0  0  0  0  0  0
   62.8886    0.2211    0.8494 C   0  0  2  0  0  0  0  0  0  0  0  0
   64.0928    0.3096    0.0870 O   0  0  0  0  0  0  0  0  0  0  0  0
   61.9101    1.3802    0.6275 C   0  0  1  0  0  0  0  0  0  0  0  0
   61.1578    1.4599    1.9627 C   0  0  2  0  0  0  0  0  0  0  0  0
   61.8861    0.6251    2.8899 O   0  0  0  0  0  0  0  0  0  0  0  0
   62.6376    2.5863    0.3927 O   0  0  0  0  0  0  0  0  0  0  0  0
   59.7097    1.0286    1.9400 C   0  0  0  0  0  0  0  0  0  0  0  0
   59.3230    0.8304    0.5567 O   0  0  0  0  0  0  0  0  0  0  0  0
   58.3429    1.8063   -0.1988 P   0  0  1  0  0  0  0  0  0  0  0  0
   56.9468    1.4903    0.1467 O   0  0  0  0  0  0  0  0  0  0  0  0
   58.7980    3.2413   -0.0406 O   0  0  0  0  0  0  0  0  0  0  0  0
   58.6417    1.4109   -1.7089 O   0  0  0  0  0  0  0  0  0  0  0  0
   57.7504    1.0480   -2.9667 P   0  0  2  0  0  0  0  0  0  0  0  0
   58.6129    0.9460   -4.1916 O   0  0  0  0  0  0  0  0  0  0  0  0
   56.5641    1.9682   -3.0458 O   0  0  0  0  0  0  0  0  0  0  0  0
   57.2612   -0.4628   -2.6376 O   0  0  0  0  0  0  0  0  0  0  0  0
   55.9174   -0.6677   -2.2857 C   0  0  2  0  0  0  0  0  0  0  0  0
   55.8164   -2.0264   -1.6087 C   0  0  2  0  0  0  0  0  0  0  0  0
   56.6911   -2.0519   -0.4469 N   0  0  0  0  0  0  0  0  0  0  0  0
   56.2505   -2.0452    0.8158 C   0  0  0  0  0  0  0  0  0  0  0  0
   55.0576   -2.0229    1.0877 O   0  0  0  0  0  0  0  0  0  0  0  0
   57.3053   -2.0468    1.8830 C   0  0  0  0  0  0  0  0  0  0  0  0
   56.2144   -3.0927   -2.6300 C   0  0  1  0  0  0  0  0  0  0  0  0
   55.9406   -4.3682   -2.0337 O   0  0  0  0  0  0  0  0  0  0  0  0
   55.2390   -2.9922   -3.7915 C   0  0  2  0  0  0  0  0  0  0  0  0
   55.5328   -3.9650   -4.7883 O   0  0  0  0  0  0  0  0  0  0  0  0
   55.2990   -1.5964   -4.4081 C   0  0  2  0  0  0  0  0  0  0  0  0
   55.0466   -0.5893   -3.4027 O   0  0  0  0  0  0  0  0  0  0  0  0
   54.2453   -1.4021   -5.4806 C   0  0  0  0  0  0  0  0  0  0  0  0
   54.6065   -0.3556   -6.3967 O   0  0  0  0  0  0  0  0  0  0  0  0
   54.6366   -4.5250   -1.4471 C   0  0  1  0  0  0  0  0  0  0  0  0
   53.8390   -5.5344   -2.2590 C   0  0  0  0  0  0  0  0  0  0  0  0
   54.3951   -6.5253   -2.7266 O   0  0  0  0  0  0  0  0  0  0  0  0
   54.8270   -5.0189   -0.0308 C   0  0  0  0  0  0  0  0  0  0  0  0
   52.5307   -5.2854   -2.4032 N   0  0  0  0  0  0  0  0  0  0  0  0
   51.6581   -6.1246   -3.2111 C   0  0  2  0  0  0  0  0  0  0  0  0
   50.4633   -5.3431   -3.7329 C   0  0  0  0  0  0  0  0  0  0  0  0
   49.3220   -5.7754   -3.7403 O   0  0  0  0  0  0  0  0  0  0  0  0
   50.8173   -4.1745   -4.2237 O   0  0  0  0  0  0  0  0  0  0  0  0
   51.1307   -7.2938   -2.3856 C   0  0  0  0  0  0  0  0  0  0  0  0
   65.4560   -1.8572    5.4614 H   0  0  0  0  0  0  0  0  0  0  0  0
   63.7142   -4.1836    2.3807 H   0  0  0  0  0  0  0  0  0  0  0  0
   62.8223   -2.1302    1.4413 H   0  0  0  0  0  0  0  0  0  0  0  0
   63.9086    1.1427    2.5128 H   0  0  0  0  0  0  0  0  0  0  0  0
   62.4854   -0.7506    0.5280 H   0  0  0  0  0  0  0  0  0  0  0  0
   64.8681    0.3665    0.7000 H   0  0  0  0  0  0  0  0  0  0  0  0
   61.2429    1.2376   -0.2354 H   0  0  0  0  0  0  0  0  0  0  0  0
   61.1160    2.5222    2.2450 H   0  0  0  0  0  0  0  0  0  0  0  0
   62.8849    2.9964    1.2591 H   0  0  0  0  0  0  0  0  0  0  0  0
   59.5913    0.0887    2.4990 H   0  0  0  0  0  0  0  0  0  0  0  0
   59.0751    1.7955    2.4081 H   0  0  0  0  0  0  0  0  0  0  0  0
   55.5977    0.1314   -1.6007 H   0  0  0  0  0  0  0  0  0  0  0  0
   54.7913   -2.2232   -1.2617 H   0  0  0  0  0  0  0  0  0  0  0  0
   57.7085   -2.0766   -0.6059 H   0  0  0  0  0  0  0  0  0  0  0  0
   56.8255   -2.0461    2.8728 H   0  0  0  0  0  0  0  0  0  0  0  0
   57.9305   -2.9459    1.7792 H   0  0  0  0  0  0  0  0  0  0  0  0
   57.9333   -1.1497    1.7792 H   0  0  0  0  0  0  0  0  0  0  0  0
   57.2638   -2.9719   -2.9368 H   0  0  0  0  0  0  0  0  0  0  0  0
   54.2269   -3.1798   -3.4037 H   0  0  0  0  0  0  0  0  0  0  0  0
   55.7898   -4.8162   -4.3530 H   0  0  0  0  0  0  0  0  0  0  0  0
   56.3050   -1.4979   -4.8419 H   0  0  0  0  0  0  0  0  0  0  0  0
   54.1290   -2.3417   -6.0406 H   0  0  0  0  0  0  0  0  0  0  0  0
   53.3035   -1.1174   -4.9887 H   0  0  0  0  0  0  0  0  0  0  0  0
   54.8836    0.4472   -5.8880 H   0  0  0  0  0  0  0  0  0  0  0  0
   54.0870   -3.5721   -1.4418 H   0  0  0  0  0  0  0  0  0  0  0  0
   54.5237   -4.2323    0.6758 H   0  0  0  0  0  0  0  0  0  0  0  0
   54.2099   -5.9150    0.1311 H   0  0  0  0  0  0  0  0  0  0  0  0
   55.8859   -5.2688    0.1311 H   0  0  0  0  0  0  0  0  0  0  0  0
   52.1265   -4.4684   -1.9236 H   0  0  0  0  0  0  0  0  0  0  0  0
   52.2571   -6.4894   -4.0586 H   0  0  0  0  0  0  0  0  0  0  0  0
   51.2347   -7.0632   -1.3151 H   0  0  0  0  0  0  0  0  0  0  0  0
   50.0698   -7.4614   -2.6231 H   0  0  0  0  0  0  0  0  0  0  0  0
   51.7072   -8.2000   -2.6231 H   0  0  0  0  0  0  0  0  0  0  0  0
  1  2  1  0
  1  6  1  0
  9  1  1  0
  2  3  1  0
  2  7  2  0
  3  4  1  0
  4  5  1  0
  4  8  2  0
  5  6  2  0
  9 10  1  0
  9 14  1  0
 10 11  1  0
 10 12  1  0
 12 13  1  0
 12 15  1  0
 13 14  1  0
 13 16  1  0
 16 17  1  0
 17 18  1  0
 18 19  2  0
 18 20  1  6
 18 21  1  0
 21 22  1  0
 22 23  2  0
 22 24  1  6
 22 25  1  0
 26 25  1  0
 26 27  1  0
 26 37  1  0
 27 28  1  0
 27 32  1  0
 28 29  1  0
 29 30  2  0
 29 31  1  0
 32 33  1  0
 32 34  1  0
 33 40  1  0
 34 35  1  0
 34 36  1  0
 36 37  1  0
 36 38  1  0
 38 39  1  0
 40 41  1  0
 40 43  1  0
 41 42  2  0
 41 44  1  0
 44 45  1  0
 45 46  1  0
 45 49  1  0
 46 47  2  0
 46 48  1  0
  3 50  1  0
  5 51  1  0
  6 52  1  0
  9 53  1  6
 10 54  1  1
 11 55  1  0
 12 56  1  6
 13 57  1  1
 15 58  1  0
 16 59  1  0
 16 60  1  0
 26 61  1  1
 27 62  1  1
 28 63  1  0
 31 64  1  0
 31 65  1  0
 31 66  1  0
 32 67  1  6
 34 68  1  1
 35 69  1  0
 36 70  1  6
 38 71  1  0
 38 72  1  0
 39 73  1  0
 40 74  1  1
 43 75  1  0
 43 76  1  0
 43 77  1  0
 44 78  1  0
 45 79  1  6
 49 80  1  0
 49 81  1  0
 49 82  1  0
M  CHG  3  20  -1  24  -1  48  -1
M  END
>  <filename_input>  (2) 
8DP2_UMA_docked.sdf

>  <pdb_id>  (2) 
8DP2_UMA

>  <pose_rank>  (2) 
1

>  <num_atoms_heavy>  (2) 
49

>  <num_torsions>  (2) 
15

>  <pose>  (2) 
[57.26115771249878, -0.462785912595739, -2.637600299909087, -1.3963919668217648, -0.6463052059616914, 0.6663114029472381, 5.8276273612772025, -0.009887399590605413, -3.8557770070263824, -3.5041713301687714, -0.25848153679709834, 3.4413263971626358, -1.0663080388171429, -2.1712014279834873, 0.5662787339885753, 0.9220558276998532, -0.9749490092521487, 1.9766300988380117, 2.0419680232440367, -0.9904914889877071, 0.768615126249661]

>  <energy>  (2) 
-679.4069044387476

>  <inter_energy>  (2) 
-718.9343929654191

>  <intra_energy>  (2) 
38.90394718601057

>  <rmsd>  (2) 
4.32588

>  <sdf_rank>  (2) 
0

$$$$

     RDKit          3D

 82 84  0  0  0  0  0  0  0  0999 V2000
   65.7014   -1.4899    4.0147 N   0  0  0  0  0  0  0  0  0  0  0  0
   66.8890   -1.8577    4.6163 C   0  0  0  0  0  0  0  0  0  0  0  0
   67.1648   -1.2123    5.7947 N   0  0  0  0  0  0  0  0  0  0  0  0
   66.3867   -0.2604    6.4158 C   0  0  0  0  0  0  0  0  0  0  0  0
   65.1663    0.0668    5.7305 C   0  0  0  0  0  0  0  0  0  0  0  0
   64.8691   -0.5457    4.5746 C   0  0  0  0  0  0  0  0  0  0  0  0
   67.6219   -2.7276    4.1639 O   0  0  0  0  0  0  0  0  0  0  0  0
   66.7529    0.2162    7.4813 O   0  0  0  0  0  0  0  0  0  0  0  0
   65.3285   -2.1719    2.7824 C   0  0  1  0  0  0  0  0  0  0  0  0
   63.9575   -2.8182    2.8533 C   0  0  2  0  0  0  0  0  0  0  0  0
   63.9923   -4.0591    3.5592 O   0  0  0  0  0  0  0  0  0  0  0  0
   63.6325   -2.9458    1.3606 C   0  0  1  0  0  0  0  0  0  0  0  0
   64.3404   -1.7307    0.7461 C   0  0  2  0  0  0  0  0  0  0  0  0
   65.2015   -1.1981    1.7765 O   0  0  0  0  0  0  0  0  0  0  0  0
   64.1880   -4.1576    0.8487 O   0  0  0  0  0  0  0  0  0  0  0  0
   63.4461   -0.6279    0.2288 C   0  0  0  0  0  0  0  0  0  0  0  0
   62.5904   -0.1976    1.3173 O   0  0  0  0  0  0  0  0  0  0  0  0
   61.0229   -0.3572    1.2787 P   0  0  1  0  0  0  0  0  0  0  0  0
   60.6338   -1.2794    0.1986 O   0  0  0  0  0  0  0  0  0  0  0  0
   60.4842   -0.6333    2.6661 O   0  0  0  0  0  0  0  0  0  0  0  0
   60.5857    1.1285    0.9214 O   0  0  0  0  0  0  0  0  0  0  0  0
   59.7525    1.7981   -0.2473 P   0  0  2  0  0  0  0  0  0  0  0  0
   60.4423    1.5708   -1.5615 O   0  0  0  0  0  0  0  0  0  0  0  0
   59.4130    3.2197    0.1051 O   0  0  0  0  0  0  0  0  0  0  0  0
   58.4037    0.8984   -0.2891 O   0  0  0  0  0  0  0  0  0  0  0  0
   57.2405    1.4110    0.3072 C   0  0  2  0  0  0  0  0  0  0  0  0
   56.1280    0.3927    0.1065 C   0  0  2  0  0  0  0  0  0  0  0  0
   56.5250   -0.8768    0.6950 N   0  0  0  0  0  0  0  0  0  0  0  0
   57.2966   -1.7753    0.0737 C   0  0  0  0  0  0  0  0  0  0  0  0
   57.7362   -1.5864   -1.0526 O   0  0  0  0  0  0  0  0  0  0  0  0
   57.5770   -3.0402    0.8306 C   0  0  0  0  0  0  0  0  0  0  0  0
   55.8788    0.2571   -1.3963 C   0  0  1  0  0  0  0  0  0  0  0  0
   54.7137   -0.5641   -1.5561 O   0  0  0  0  0  0  0  0  0  0  0  0
   55.4604    1.6251   -1.9101 C   0  0  2  0  0  0  0  0  0  0  0  0
   55.1953    1.5843   -3.3080 O   0  0  0  0  0  0  0  0  0  0  0  0
   56.5576    2.6495   -1.6290 C   0  0  2  0  0  0  0  0  0  0  0  0
   56.8739    2.6761   -0.2191 O   0  0  0  0  0  0  0  0  0  0  0  0
   56.1304    4.0567   -1.9972 C   0  0  0  0  0  0  0  0  0  0  0  0
   56.6308    4.4433   -3.2874 O   0  0  0  0  0  0  0  0  0  0  0  0
   54.8780   -1.7447   -2.3614 C   0  0  1  0  0  0  0  0  0  0  0  0
   54.2739   -2.9365   -1.6341 C   0  0  0  0  0  0  0  0  0  0  0  0
   54.0182   -2.8605   -0.4346 O   0  0  0  0  0  0  0  0  0  0  0  0
   54.1632   -1.5088   -3.6727 C   0  0  0  0  0  0  0  0  0  0  0  0
   54.0296   -4.0267   -2.3731 N   0  0  0  0  0  0  0  0  0  0  0  0
   53.5198   -5.2635   -1.7997 C   0  0  2  0  0  0  0  0  0  0  0  0
   54.6454   -6.1310   -1.2603 C   0  0  0  0  0  0  0  0  0  0  0  0
   55.5840   -6.5202   -1.9361 O   0  0  0  0  0  0  0  0  0  0  0  0
   54.4546   -6.4546    0.0010 O   0  0  0  0  0  0  0  0  0  0  0  0
   52.7698   -6.0697   -2.8552 C   0  0  0  0  0  0  0  0  0  0  0  0
   68.0457   -1.4660    6.2643 H   0  0  0  0  0  0  0  0  0  0  0  0
   64.4795    0.8156    6.1517 H   0  0  0  0  0  0  0  0  0  0  0  0
   63.9329   -0.2862    4.0585 H   0  0  0  0  0  0  0  0  0  0  0  0
   66.0970   -2.9370    2.5980 H   0  0  0  0  0  0  0  0  0  0  0  0
   63.1948   -2.2577    3.4138 H   0  0  0  0  0  0  0  0  0  0  0  0
   63.9874   -3.8847    4.5337 H   0  0  0  0  0  0  0  0  0  0  0  0
   62.5547   -2.9725    1.1426 H   0  0  0  0  0  0  0  0  0  0  0  0
   64.8710   -2.0868   -0.1493 H   0  0  0  0  0  0  0  0  0  0  0  0
   64.4558   -4.7418    1.6018 H   0  0  0  0  0  0  0  0  0  0  0  0
   64.0585    0.2163   -0.1208 H   0  0  0  0  0  0  0  0  0  0  0  0
   62.8393   -0.9915   -0.6136 H   0  0  0  0  0  0  0  0  0  0  0  0
   57.4266    1.5754    1.3788 H   0  0  0  0  0  0  0  0  0  0  0  0
   55.1990    0.7155    0.5991 H   0  0  0  0  0  0  0  0  0  0  0  0
   56.1928   -1.0964    1.6449 H   0  0  0  0  0  0  0  0  0  0  0  0
   57.5323   -2.8385    1.9110 H   0  0  0  0  0  0  0  0  0  0  0  0
   56.8253   -3.7991    0.5678 H   0  0  0  0  0  0  0  0  0  0  0  0
   58.5790   -3.4102    0.5678 H   0  0  0  0  0  0  0  0  0  0  0  0
   56.7666   -0.1426   -1.9082 H   0  0  0  0  0  0  0  0  0  0  0  0
   54.5395    1.9192   -1.3853 H   0  0  0  0  0  0  0  0  0  0  0  0
   54.2278    1.4355   -3.4562 H   0  0  0  0  0  0  0  0  0  0  0  0
   57.4224    2.3441   -2.2363 H   0  0  0  0  0  0  0  0  0  0  0  0
   55.0314    4.1032   -2.0125 H   0  0  0  0  0  0  0  0  0  0  0  0
   56.5436    4.7478   -1.2478 H   0  0  0  0  0  0  0  0  0  0  0  0
   57.4091    5.0444   -3.1729 H   0  0  0  0  0  0  0  0  0  0  0  0
   55.9420   -1.9538   -2.5460 H   0  0  0  0  0  0  0  0  0  0  0  0
   53.1357   -1.1697   -3.4744 H   0  0  0  0  0  0  0  0  0  0  0  0
   54.6984   -0.7397   -4.2489 H   0  0  0  0  0  0  0  0  0  0  0  0
   54.1354   -2.4455   -4.2489 H   0  0  0  0  0  0  0  0  0  0  0  0
   54.2096   -3.9882   -3.3865 H   0  0  0  0  0  0  0  0  0  0  0  0
   52.8456   -4.9828   -0.9771 H   0  0  0  0  0  0  0  0  0  0  0  0
   52.1006   -6.7890   -2.3603 H   0  0  0  0  0  0  0  0  0  0  0  0
   52.1763   -5.3890   -3.4833 H   0  0  0  0  0  0  0  0  0  0  0  0
   53.4915   -6.6125   -3.4833 H   0  0  0  0  0  0  0  0  0  0  0  0
  1  2  1  0
  1  6  1  0
  9  1  1  0
  2  3  1  0
  2  7  2  0
  3  4  1  0
  4  5  1  0
  4  8  2  0
  5  6  2  0
  9 10  1  0
  9 14  1  0
 10 11  1  0
 10 12  1  0
 12 13  1  0
 12 15  1  0
 13 14  1  0
 13 16  1  0
 16 17  1  0
 17 18  1  0
 18 19  2  0
 18 20  1  1
 18 21  1  0
 21 22  1  0
 22 23  2  0
 22 24  1  1
 22 25  1  0
 26 25  1  0
 26 27  1  0
 26 37  1  0
 27 28  1  0
 27 32  1  0
 28 29  1  0
 29 30  2  0
 29 31  1  0
 32 33  1  0
 32 34  1  0
 33 40  1  0
 34 35  1  0
 34 36  1  0
 36 37  1  0
 36 38  1  0
 38 39  1  0
 40 41  1  0
 40 43  1  0
 41 42  2  0
 41 44  1  0
 44 45  1  0
 45 46  1  0
 45 49  1  0
 46 47  2  0
 46 48  1  0
  3 50  1  0
  5 51  1  0
  6 52  1  0
  9 53  1  6
 10 54  1  1
 11 55  1  0
 12 56  1  1
 13 57  1  6
 15 58  1  0
 16 59  1  0
 16 60  1  0
 26 61  1  1
 27 62  1  1
 28 63  1  0
 31 64  1  0
 31 65  1  0
 31 66  1  0
 32 67  1  6
 34 68  1  1
 35 69  1  0
 36 70  1  6
 38 71  1  0
 38 72  1  0
 39 73  1  0
 40 74  1  6
 43 75  1  0
 43 76  1  0
 43 77  1  0
 44 78  1  0
 45 79  1  1
 49 80  1  0
 49 81  1  0
 49 82  1  0
M  CHG  3  20  -1  24  -1  48  -1
M  END
>  <filename_input>  (3) 
8DP2_UMA_docked.sdf

>  <pdb_id>  (3) 
8DP2_UMA

>  <pose_rank>  (3) 
2

>  <num_atoms_heavy>  (3) 
49

>  <num_torsions>  (3) 
15

>  <pose>  (3) 
[58.40373487460661, 0.8984246917793135, -0.28914166739985114, -1.0900555845800393, -0.1434561086087327, 0.06973602027442607, 5.496590049042407, 2.9240193653087165, -2.829813938257566, -0.2377213168534385, 0.09197542798293867, 2.5008502071070926, 0.12646945999221978, -0.7802614432156048, -5.833032638808292, -9.4499744151992, -1.136634849607678, -2.643933619901568, -4.372107008834095, -6.137042062001231, 0.23525130737392907]

>  <energy>  (3) 
-806.7574614713466

>  <inter_energy>  (3) 
-922.3842101560562

>  <intra_energy>  (3) 
115.83848362069575

>  <rmsd>  (3) 
1.68419

>  <sdf_rank>  (3) 
0

$$$$

     RDKit          3D

 82 84  0  0  0  0  0  0  0  0999 V2000
   65.9135   -1.7946    3.8885 N   0  0  0  0  0  0  0  0  0  0  0  0
   66.8673   -1.2755    4.7421 C   0  0  0  0  0  0  0  0  0  0  0  0
   66.3752   -0.4746    5.7410 N   0  0  0  0  0  0  0  0  0  0  0  0
   65.0550   -0.1522    5.9651 C   0  0  0  0  0  0  0  0  0  0  0  0
   64.1230   -0.7323    5.0371 C   0  0  0  0  0  0  0  0  0  0  0  0
   64.5733   -1.5186    4.0479 C   0  0  0  0  0  0  0  0  0  0  0  0
   68.0581   -1.5439    4.6505 O   0  0  0  0  0  0  0  0  0  0  0  0
   64.7613    0.5617    6.9142 O   0  0  0  0  0  0  0  0  0  0  0  0
   66.3673   -2.6901    2.8327 C   0  0  1  0  0  0  0  0  0  0  0  0
   65.6640   -4.0346    2.8520 C   0  0  2  0  0  0  0  0  0  0  0  0
   66.2025   -4.9001    3.8521 O   0  0  0  0  0  0  0  0  0  0  0  0
   65.9104   -4.4981    1.4117 C   0  0  1  0  0  0  0  0  0  0  0  0
   65.9318   -3.1823    0.6223 C   0  0  2  0  0  0  0  0  0  0  0  0
   65.9961   -2.1221    1.6015 O   0  0  0  0  0  0  0  0  0  0  0  0
   67.1774   -5.1511    1.3261 O   0  0  0  0  0  0  0  0  0  0  0  0
   64.7585   -2.9364   -0.2977 C   0  0  0  0  0  0  0  0  0  0  0  0
   64.2935   -1.5808   -0.0781 O   0  0  0  0  0  0  0  0  0  0  0  0
   63.3279   -0.8418   -1.0808 P   0  0  1  0  0  0  0  0  0  0  0  0
   62.8323    0.4077   -0.4794 O   0  0  0  0  0  0  0  0  0  0  0  0
   63.9549   -0.7589   -2.4561 O   0  0  0  0  0  0  0  0  0  0  0  0
   62.1523   -1.9054   -1.1934 O   0  0  0  0  0  0  0  0  0  0  0  0
   61.0039   -2.4088   -0.2259 P   0  0  2  0  0  0  0  0  0  0  0  0
   61.5579   -2.6318    1.1518 O   0  0  0  0  0  0  0  0  0  0  0  0
   60.2613   -3.5555   -0.8535 O   0  0  0  0  0  0  0  0  0  0  0  0
   60.0343   -1.1136   -0.1133 O   0  0  0  0  0  0  0  0  0  0  0  0
   59.3675   -0.8821    1.1005 C   0  0  2  0  0  0  0  0  0  0  0  0
   57.9135   -0.5699    0.7796 C   0  0  2  0  0  0  0  0  0  0  0  0
   57.3324   -1.6828    0.0453 N   0  0  0  0  0  0  0  0  0  0  0  0
   56.6182   -2.6586    0.6167 C   0  0  0  0  0  0  0  0  0  0  0  0
   56.3940   -2.6808    1.8195 O   0  0  0  0  0  0  0  0  0  0  0  0
   56.1229   -3.7378   -0.3005 C   0  0  0  0  0  0  0  0  0  0  0  0
   57.8785    0.7194   -0.0422 C   0  0  1  0  0  0  0  0  0  0  0  0
   56.5004    1.0927   -0.1792 O   0  0  0  0  0  0  0  0  0  0  0  0
   58.4926    1.8164    0.8122 C   0  0  2  0  0  0  0  0  0  0  0  0
   58.4878    3.0615    0.1222 O   0  0  0  0  0  0  0  0  0  0  0  0
   59.9259    1.4480    1.1890 C   0  0  2  0  0  0  0  0  0  0  0  0
   59.9591    0.1647    1.8529 O   0  0  0  0  0  0  0  0  0  0  0  0
   60.5343    2.4445    2.1560 C   0  0  0  0  0  0  0  0  0  0  0  0
   61.8392    2.8693    1.7300 O   0  0  0  0  0  0  0  0  0  0  0  0
   56.1637    1.8468   -1.3571 C   0  0  1  0  0  0  0  0  0  0  0  0
   56.5110    1.0298   -2.5924 C   0  0  0  0  0  0  0  0  0  0  0  0
   57.3540    1.4417   -3.3858 O   0  0  0  0  0  0  0  0  0  0  0  0
   54.6793    2.1302   -1.3116 C   0  0  0  0  0  0  0  0  0  0  0  0
   55.8711   -0.1383   -2.7358 N   0  0  0  0  0  0  0  0  0  0  0  0
   56.0496   -0.9911   -3.9017 C   0  0  2  0  0  0  0  0  0  0  0  0
   54.8052   -1.0061   -4.7745 C   0  0  0  0  0  0  0  0  0  0  0  0
   53.9973   -1.9207   -4.7866 O   0  0  0  0  0  0  0  0  0  0  0  0
   54.7371    0.0545   -5.5507 O   0  0  0  0  0  0  0  0  0  0  0  0
   56.3395   -2.4257   -3.4720 C   0  0  0  0  0  0  0  0  0  0  0  0
   67.0650   -0.0721    6.3914 H   0  0  0  0  0  0  0  0  0  0  0  0
   63.0460   -0.5325    5.1377 H   0  0  0  0  0  0  0  0  0  0  0  0
   63.8508   -1.9559    3.3431 H   0  0  0  0  0  0  0  0  0  0  0  0
   67.4490   -2.8283    2.9767 H   0  0  0  0  0  0  0  0  0  0  0  0
   64.5975   -4.0107    3.1204 H   0  0  0  0  0  0  0  0  0  0  0  0
   65.9816   -4.5450    4.7495 H   0  0  0  0  0  0  0  0  0  0  0  0
   65.1591   -5.2110    1.0411 H   0  0  0  0  0  0  0  0  0  0  0  0
   66.7976   -3.2277   -0.0547 H   0  0  0  0  0  0  0  0  0  0  0  0
   67.5200   -5.3277    2.2380 H   0  0  0  0  0  0  0  0  0  0  0  0
   65.0732   -3.0581   -1.3447 H   0  0  0  0  0  0  0  0  0  0  0  0
   63.9524   -3.6554   -0.0896 H   0  0  0  0  0  0  0  0  0  0  0  0
   59.4410   -1.7813    1.7299 H   0  0  0  0  0  0  0  0  0  0  0  0
   57.3244   -0.4291    1.6978 H   0  0  0  0  0  0  0  0  0  0  0  0
   57.4794   -1.7217   -0.9734 H   0  0  0  0  0  0  0  0  0  0  0  0
   55.7375   -4.5778    0.2961 H   0  0  0  0  0  0  0  0  0  0  0  0
   55.3178   -3.3389   -0.9351 H   0  0  0  0  0  0  0  0  0  0  0  0
   56.9504   -4.0881   -0.9351 H   0  0  0  0  0  0  0  0  0  0  0  0
   58.3912    0.5860   -1.0062 H   0  0  0  0  0  0  0  0  0  0  0  0
   57.8867    1.9171    1.7247 H   0  0  0  0  0  0  0  0  0  0  0  0
   58.4849    3.8025    0.7786 H   0  0  0  0  0  0  0  0  0  0  0  0
   60.4950    1.4363    0.2478 H   0  0  0  0  0  0  0  0  0  0  0  0
   59.8770    3.3241    2.2222 H   0  0  0  0  0  0  0  0  0  0  0  0
   60.6360    1.9540    3.1354 H   0  0  0  0  0  0  0  0  0  0  0  0
   62.4020    3.0525    2.5236 H   0  0  0  0  0  0  0  0  0  0  0  0
   56.7255    2.7917   -1.3968 H   0  0  0  0  0  0  0  0  0  0  0  0
   54.3499    2.1931   -0.2640 H   0  0  0  0  0  0  0  0  0  0  0  0
   54.4724    3.0841   -1.8189 H   0  0  0  0  0  0  0  0  0  0  0  0
   54.1355    1.3197   -1.8189 H   0  0  0  0  0  0  0  0  0  0  0  0
   55.2278   -0.4448   -1.9921 H   0  0  0  0  0  0  0  0  0  0  0  0
   56.8949   -0.5811   -4.4738 H   0  0  0  0  0  0  0  0  0  0  0  0
   56.3513   -2.4842   -2.3736 H   0  0  0  0  0  0  0  0  0  0  0  0
   55.5577   -3.0916   -3.8662 H   0  0  0  0  0  0  0  0  0  0  0  0
   57.3184   -2.7359   -3.8662 H   0  0  0  0  0  0  0  0  0  0  0  0
  1  2  1  0
  1  6  1  0
  9  1  1  0
  2  3  1  0
  2  7  2  0
  3  4  1  0
  4  5  1  0
  4  8  2  0
  5  6  2  0
  9 10  1  0
  9 14  1  0
 10 11  1  0
 10 12  1  0
 12 13  1  0
 12 15  1  0
 13 14  1  0
 13 16  1  0
 16 17  1  0
 17 18  1  0
 18 19  2  0
 18 20  1  6
 18 21  1  0
 21 22  1  0
 22 23  2  0
 22 24  1  6
 22 25  1  0
 26 25  1  0
 26 27  1  0
 26 37  1  0
 27 28  1  0
 27 32  1  0
 28 29  1  0
 29 30  2  0
 29 31  1  0
 32 33  1  0
 32 34  1  0
 33 40  1  0
 34 35  1  0
 34 36  1  0
 36 37  1  0
 36 38  1  0
 38 39  1  0
 40 41  1  0
 40 43  1  0
 41 42  2  0
 41 44  1  0
 44 45  1  0
 45 46  1  0
 45 49  1  0
 46 47  2  0
 46 48  1  0
  3 50  1  0
  5 51  1  0
  6 52  1  0
  9 53  1  6
 10 54  1  1
 11 55  1  0
 12 56  1  6
 13 57  1  6
 15 58  1  0
 16 59  1  0
 16 60  1  0
 26 61  1  1
 27 62  1  1
 28 63  1  0
 31 64  1  0
 31 65  1  0
 31 66  1  0
 32 67  1  6
 34 68  1  1
 35 69  1  0
 36 70  1  6
 38 71  1  0
 38 72  1  0
 39 73  1  0
 40 74  1  6
 43 75  1  0
 43 76  1  0
 43 77  1  0
 44 78  1  0
 45 79  1  6
 49 80  1  0
 49 81  1  0
 49 82  1  0
M  CHG  3  20  -1  24  -1  48  -1
M  END
>  <filename_input>  (4) 
8DP2_UMA_docked.sdf

>  <pdb_id>  (4) 
8DP2_UMA

>  <pose_rank>  (4) 
3

>  <num_atoms_heavy>  (4) 
49

>  <num_torsions>  (4) 
15

>  <pose>  (4) 
[60.034326869377644, -1.1135807898354937, -0.11333795680061082, 0.4578113099245596, 0.3438115148451699, -1.116413373911671, -18.804283648705702, 6.054608491686585, 2.8790988667217507, -0.733589565693787, -13.74309431053085, -5.559572669329014, -12.864189776346134, -1.5647882971517595, 2.406374685507883, 3.4319156917610525, -20.870576752011395, -6.222695587588249, 6.817732598709659, 7.770872462751051, 0.23820514008287044]

>  <energy>  (4) 
-814.7714702555918

>  <inter_energy>  (4) 
-819.1909787950755

>  <intra_energy>  (4) 
22.20178041310849

>  <rmsd>  (4) 
3.75729

>  <sdf_rank>  (4) 
0

$$$$

     RDKit          3D

 82 84  0  0  0  0  0  0  0  0999 V2000
   63.9213   -4.4240    0.4762 N   0  0  0  0  0  0  0  0  0  0  0  0
   64.3485   -5.7263    0.6473 C   0  0  0  0  0  0  0  0  0  0  0  0
   64.3618   -6.4855   -0.4950 N   0  0  0  0  0  0  0  0  0  0  0  0
   64.0009   -6.0787   -1.7605 C   0  0  0  0  0  0  0  0  0  0  0  0
   63.5705   -4.7107   -1.8579 C   0  0  0  0  0  0  0  0  0  0  0  0
   63.5443   -3.9428   -0.7583 C   0  0  0  0  0  0  0  0  0  0  0  0
   64.7337   -6.1637    1.7237 O   0  0  0  0  0  0  0  0  0  0  0  0
   64.0845   -6.8653   -2.6936 O   0  0  0  0  0  0  0  0  0  0  0  0
   63.9268   -3.5522    1.6435 C   0  0  1  0  0  0  0  0  0  0  0  0
   65.2249   -2.7828    1.8033 C   0  0  2  0  0  0  0  0  0  0  0  0
   66.2546   -3.5925    2.3718 O   0  0  0  0  0  0  0  0  0  0  0  0
   64.7565   -1.6300    2.6988 C   0  0  1  0  0  0  0  0  0  0  0  0
   63.3001   -1.4212    2.2625 C   0  0  2  0  0  0  0  0  0  0  0  0
   62.9561   -2.5564    1.4379 O   0  0  0  0  0  0  0  0  0  0  0  0
   64.8139   -2.0301    4.0683 O   0  0  0  0  0  0  0  0  0  0  0  0
   63.0069   -0.1491    1.5013 C   0  0  0  0  0  0  0  0  0  0  0  0
   62.7311   -0.5052    0.1231 O   0  0  0  0  0  0  0  0  0  0  0  0
   62.2490    0.5481   -0.9455 P   0  0  1  0  0  0  0  0  0  0  0  0
   63.3621    1.4371   -1.3189 O   0  0  0  0  0  0  0  0  0  0  0  0
   61.4935   -0.1388   -2.0630 O   0  0  0  0  0  0  0  0  0  0  0  0
   61.1636    1.3457   -0.1020 O   0  0  0  0  0  0  0  0  0  0  0  0
   59.8791    0.9428    0.7323 P   0  0  2  0  0  0  0  0  0  0  0  0
   59.5131    2.0531    1.6747 O   0  0  0  0  0  0  0  0  0  0  0  0
   60.0560   -0.4253    1.3302 O   0  0  0  0  0  0  0  0  0  0  0  0
   58.7132    0.9106   -0.3946 O   0  0  0  0  0  0  0  0  0  0  0  0
   57.3793    0.7937    0.0280 C   0  0  2  0  0  0  0  0  0  0  0  0
   56.7462   -0.3543   -0.7439 C   0  0  2  0  0  0  0  0  0  0  0  0
   57.5012   -1.5733   -0.4995 N   0  0  0  0  0  0  0  0  0  0  0  0
   57.2055   -2.4499    0.4664 C   0  0  0  0  0  0  0  0  0  0  0  0
   56.2573   -2.2880    1.2229 O   0  0  0  0  0  0  0  0  0  0  0  0
   58.1167   -3.6363    0.5825 C   0  0  0  0  0  0  0  0  0  0  0  0
   56.7504    0.0162   -2.2276 C   0  0  1  0  0  0  0  0  0  0  0  0
   55.9921   -0.9896   -2.9137 O   0  0  0  0  0  0  0  0  0  0  0  0
   55.9307    1.2874   -2.3780 C   0  0  2  0  0  0  0  0  0  0  0  0
   55.8729    1.6973   -3.7400 O   0  0  0  0  0  0  0  0  0  0  0  0
   56.5375    2.4063   -1.5343 C   0  0  2  0  0  0  0  0  0  0  0  0
   56.6462    1.9946   -0.1532 O   0  0  0  0  0  0  0  0  0  0  0  0
   55.6775    3.6547   -1.5409 C   0  0  0  0  0  0  0  0  0  0  0  0
   54.8738    3.7524   -0.3538 O   0  0  0  0  0  0  0  0  0  0  0  0
   56.7478   -2.0753   -3.4789 C   0  0  1  0  0  0  0  0  0  0  0  0
   56.0413   -3.3886   -3.1783 C   0  0  0  0  0  0  0  0  0  0  0  0
   56.6559   -4.4498   -3.2551 O   0  0  0  0  0  0  0  0  0  0  0  0
   56.8293   -1.8493   -4.9717 C   0  0  0  0  0  0  0  0  0  0  0  0
   54.7544   -3.3057   -2.8159 N   0  0  0  0  0  0  0  0  0  0  0  0
   53.9335   -4.4815   -2.5667 C   0  0  2  0  0  0  0  0  0  0  0  0
   54.7071   -5.5485   -1.8093 C   0  0  0  0  0  0  0  0  0  0  0  0
   55.0169   -6.6280   -2.2870 O   0  0  0  0  0  0  0  0  0  0  0  0
   54.9502   -5.1897   -0.5666 O   0  0  0  0  0  0  0  0  0  0  0  0
   53.4611   -5.0893   -3.8835 C   0  0  0  0  0  0  0  0  0  0  0  0
   64.6744   -7.4620   -0.3961 H   0  0  0  0  0  0  0  0  0  0  0  0
   63.2641   -4.2955   -2.8294 H   0  0  0  0  0  0  0  0  0  0  0  0
   63.2119   -2.8978   -0.8450 H   0  0  0  0  0  0  0  0  0  0  0  0
   63.7590   -4.1948    2.5204 H   0  0  0  0  0  0  0  0  0  0  0  0
   65.6935   -2.4396    0.8691 H   0  0  0  0  0  0  0  0  0  0  0  0
   66.2004   -3.5499    3.3594 H   0  0  0  0  0  0  0  0  0  0  0  0
   65.3686   -0.7207    2.6068 H   0  0  0  0  0  0  0  0  0  0  0  0
   62.7000   -1.3282    3.1797 H   0  0  0  0  0  0  0  0  0  0  0  0
   64.7001   -1.2365    4.6490 H   0  0  0  0  0  0  0  0  0  0  0  0
   62.1325    0.3548    1.9388 H   0  0  0  0  0  0  0  0  0  0  0  0
   63.8668    0.5350    1.5545 H   0  0  0  0  0  0  0  0  0  0  0  0
   57.3594    0.5915    1.1090 H   0  0  0  0  0  0  0  0  0  0  0  0
   55.7103   -0.5298   -0.4182 H   0  0  0  0  0  0  0  0  0  0  0  0
   58.3101   -1.7729   -1.1050 H   0  0  0  0  0  0  0  0  0  0  0  0
   58.2905   -3.8626    1.6449 H   0  0  0  0  0  0  0  0  0  0  0  0
   57.6516   -4.5051    0.0939 H   0  0  0  0  0  0  0  0  0  0  0  0
   59.0761   -3.4109    0.0939 H   0  0  0  0  0  0  0  0  0  0  0  0
   57.7785    0.1192   -2.6049 H   0  0  0  0  0  0  0  0  0  0  0  0
   54.9087    1.0770   -2.0298 H   0  0  0  0  0  0  0  0  0  0  0  0
   55.7347    2.6766   -3.7842 H   0  0  0  0  0  0  0  0  0  0  0  0
   57.5220    2.6211   -1.9756 H   0  0  0  0  0  0  0  0  0  0  0  0
   56.3308    4.5375   -1.6028 H   0  0  0  0  0  0  0  0  0  0  0  0
   55.0031    3.6021   -2.4084 H   0  0  0  0  0  0  0  0  0  0  0  0
   55.4547    3.6818    0.4447 H   0  0  0  0  0  0  0  0  0  0  0  0
   57.7597   -2.1196   -3.0499 H   0  0  0  0  0  0  0  0  0  0  0  0
   57.1965   -0.8313   -5.1689 H   0  0  0  0  0  0  0  0  0  0  0  0
   57.5203   -2.5808   -5.4161 H   0  0  0  0  0  0  0  0  0  0  0  0
   55.8305   -1.9713   -5.4161 H   0  0  0  0  0  0  0  0  0  0  0  0
   54.3292   -2.3736   -2.7094 H   0  0  0  0  0  0  0  0  0  0  0  0
   53.0748   -4.1523   -1.9632 H   0  0  0  0  0  0  0  0  0  0  0  0
   52.7981   -5.9423   -3.6766 H   0  0  0  0  0  0  0  0  0  0  0  0
   52.9131   -4.3308   -4.4617 H   0  0  0  0  0  0  0  0  0  0  0  0
   54.3314   -5.4332   -4.4617 H   0  0  0  0  0  0  0  0  0  0  0  0
  1  2  1  0
  1  6  1  0
  9  1  1  0
  2  3  1  0
  2  7  2  0
  3  4  1  0
  4  5  1  0
  4  8  2  0
  5  6  2  0
  9 10  1  0
  9 14  1  0
 10 11  1  0
 10 12  1  0
 12 13  1  0
 12 15  1  0
 13 14  1  0
 13 16  1  0
 16 17  1  0
 17 18  1  0
 18 19  2  0
 18 20  1  6
 18 21  1  0
 21 22  1  0
 22 23  2  0
 22 24  1  1
 22 25  1  0
 26 25  1  0
 26 27  1  0
 26 37  1  0
 27 28  1  0
 27 32  1  0
 28 29  1  0
 29 30  2  0
 29 31  1  0
 32 33  1  0
 32 34  1  0
 33 40  1  0
 34 35  1  0
 34 36  1  0
 36 37  1  0
 36 38  1  0
 38 39  1  0
 40 41  1  0
 40 43  1  0
 41 42  2  0
 41 44  1  0
 44 45  1  0
 45 46  1  0
 45 49  1  0
 46 47  2  0
 46 48  1  0
  3 50  1  0
  5 51  1  0
  6 52  1  0
  9 53  1  1
 10 54  1  6
 11 55  1  0
 12 56  1  1
 13 57  1  1
 15 58  1  0
 16 59  1  0
 16 60  1  0
 26 61  1  1
 27 62  1  1
 28 63  1  0
 31 64  1  0
 31 65  1  0
 31 66  1  0
 32 67  1  6
 34 68  1  1
 35 69  1  0
 36 70  1  6
 38 71  1  0
 38 72  1  0
 39 73  1  0
 40 74  1  1
 43 75  1  0
 43 76  1  0
 43 77  1  0
 44 78  1  0
 45 79  1  1
 49 80  1  0
 49 81  1  0
 49 82  1  0
M  CHG  3  20  -1  24  -1  48  -1
M  END
>  <filename_input>  (5) 
8DP2_UMA_docked.sdf

>  <pdb_id>  (5) 
8DP2_UMA

>  <pose_rank>  (5) 
4

>  <num_atoms_heavy>  (5) 
49

>  <num_torsions>  (5) 
15

>  <pose>  (5) 
[58.713205321328154, 0.9105598196575436, -0.3945581150185737, 0.09411036888960324, -0.3761372779117848, -0.21189795721004556, -12.435700903054114, -0.2928362861784843, 0.6288315207095013, 6.549361516149451, 0.15566232681229264, -6.322107852307087, -3.9547144140489348, 4.5305413042744265, 8.278664253430625, 7.014294279326276, 14.642461885248505, 4.653445259447487, -18.151069301581334, 7.3542464833840135, -0.34327336095553895]

>  <energy>  (5) 
-666.8329937609774

>  <inter_energy>  (5) 
-761.034890329068

>  <intra_energy>  (5) 
88.45592525495233

>  <rmsd>  (5) 
3.53455

>  <sdf_rank>  (5) 
0

$$$$

     RDKit          3D

 82 84  0  0  0  0  0  0  0  0999 V2000
   64.4355   -1.6007    2.6840 N   0  0  0  0  0  0  0  0  0  0  0  0
   63.9304   -0.5027    3.3525 C   0  0  0  0  0  0  0  0  0  0  0  0
   64.5314   -0.2308    4.5551 N   0  0  0  0  0  0  0  0  0  0  0  0
   65.5640   -0.9312    5.1386 C   0  0  0  0  0  0  0  0  0  0  0  0
   66.0363   -2.0581    4.3815 C   0  0  0  0  0  0  0  0  0  0  0  0
   65.4678   -2.3513    3.2024 C   0  0  0  0  0  0  0  0  0  0  0  0
   63.0468    0.2079    2.8914 O   0  0  0  0  0  0  0  0  0  0  0  0
   66.0155   -0.5570    6.2122 O   0  0  0  0  0  0  0  0  0  0  0  0
   63.8699   -1.9162    1.3789 C   0  0  1  0  0  0  0  0  0  0  0  0
   62.4034   -2.3002    1.4447 C   0  0  2  0  0  0  0  0  0  0  0  0
   62.2278   -3.6504    1.8752 O   0  0  0  0  0  0  0  0  0  0  0  0
   61.9813   -2.0360   -0.0052 C   0  0  1  0  0  0  0  0  0  0  0  0
   62.8834   -0.8666   -0.4218 C   0  0  2  0  0  0  0  0  0  0  0  0
   63.8863   -0.7393    0.6101 O   0  0  0  0  0  0  0  0  0  0  0  0
   62.2567   -3.1870   -0.8042 O   0  0  0  0  0  0  0  0  0  0  0  0
   62.2003    0.4674   -0.6159 C   0  0  0  0  0  0  0  0  0  0  0  0
   60.7810    0.2815   -0.3854 O   0  0  0  0  0  0  0  0  0  0  0  0
   59.9056    1.3267    0.4053 P   0  0  1  0  0  0  0  0  0  0  0  0
   60.1609    1.2113    1.8510 O   0  0  0  0  0  0  0  0  0  0  0  0
   60.0246    2.6994   -0.2216 O   0  0  0  0  0  0  0  0  0  0  0  0
   58.4442    0.8069    0.0588 O   0  0  0  0  0  0  0  0  0  0  0  0
   57.1973    1.4077   -0.7110 P   0  0  2  0  0  0  0  0  0  0  0  0
   57.6635    2.2043   -1.8954 O   0  0  0  0  0  0  0  0  0  0  0  0
   56.2757    2.1007    0.2537 O   0  0  0  0  0  0  0  0  0  0  0  0
   56.4771    0.0867   -1.3165 O   0  0  0  0  0  0  0  0  0  0  0  0
   57.1823   -0.6897   -2.2501 C   0  0  2  0  0  0  0  0  0  0  0  0
   56.2592   -0.9478   -3.4315 C   0  0  2  0  0  0  0  0  0  0  0  0
   55.8317    0.3230   -3.9955 N   0  0  0  0  0  0  0  0  0  0  0  0
   56.4127    0.9001   -5.0529 C   0  0  0  0  0  0  0  0  0  0  0  0
   57.3589    0.3869   -5.6351 O   0  0  0  0  0  0  0  0  0  0  0  0
   55.8494    2.2256   -5.4737 C   0  0  0  0  0  0  0  0  0  0  0  0
   55.0675   -1.7640   -2.9291 C   0  0  1  0  0  0  0  0  0  0  0  0
   54.3065   -2.1494   -4.0822 O   0  0  0  0  0  0  0  0  0  0  0  0
   55.6154   -3.0687   -2.3743 C   0  0  2  0  0  0  0  0  0  0  0  0
   54.5636   -3.8987   -1.8936 O   0  0  0  0  0  0  0  0  0  0  0  0
   56.5995   -2.7854   -1.2415 C   0  0  2  0  0  0  0  0  0  0  0  0
   57.6535   -1.9077   -1.6964 O   0  0  0  0  0  0  0  0  0  0  0  0
   57.2786   -4.0479   -0.7483 C   0  0  0  0  0  0  0  0  0  0  0  0
   57.3012   -4.1130    0.6869 O   0  0  0  0  0  0  0  0  0  0  0  0
   54.9743   -3.0102   -5.0216 C   0  0  1  0  0  0  0  0  0  0  0  0
   54.1462   -4.2700   -5.2244 C   0  0  0  0  0  0  0  0  0  0  0  0
   54.6028   -5.2091   -5.8723 O   0  0  0  0  0  0  0  0  0  0  0  0
   55.1094   -2.2520   -6.3228 C   0  0  0  0  0  0  0  0  0  0  0  0
   52.9369   -4.2897   -4.6485 N   0  0  0  0  0  0  0  0  0  0  0  0
   52.0078   -5.3976   -4.8153 C   0  0  2  0  0  0  0  0  0  0  0  0
   50.6173   -4.9057   -5.1828 C   0  0  0  0  0  0  0  0  0  0  0  0
   50.3874   -3.7906   -5.6220 O   0  0  0  0  0  0  0  0  0  0  0  0
   49.6928   -5.8040   -4.9177 O   0  0  0  0  0  0  0  0  0  0  0  0
   51.8965   -6.1979   -3.5216 C   0  0  0  0  0  0  0  0  0  0  0  0
   64.1730    0.5821    5.0764 H   0  0  0  0  0  0  0  0  0  0  0  0
   66.8600   -2.6769    4.7670 H   0  0  0  0  0  0  0  0  0  0  0  0
   65.8368   -3.2168    2.6325 H   0  0  0  0  0  0  0  0  0  0  0  0
   64.4600   -2.7498    0.9703 H   0  0  0  0  0  0  0  0  0  0  0  0
   61.7982   -1.7461    2.1774 H   0  0  0  0  0  0  0  0  0  0  0  0
   62.2235   -3.6834    2.8646 H   0  0  0  0  0  0  0  0  0  0  0  0
   60.9097   -1.8166   -0.1216 H   0  0  0  0  0  0  0  0  0  0  0  0
   63.2845   -1.1089   -1.4170 H   0  0  0  0  0  0  0  0  0  0  0  0
   62.4420   -3.9609   -0.2152 H   0  0  0  0  0  0  0  0  0  0  0  0
   62.6020    1.2001    0.0995 H   0  0  0  0  0  0  0  0  0  0  0  0
   62.3761    0.8421   -1.6351 H   0  0  0  0  0  0  0  0  0  0  0  0
   58.0794   -0.1406   -2.5719 H   0  0  0  0  0  0  0  0  0  0  0  0
   56.7743   -1.5107   -4.2239 H   0  0  0  0  0  0  0  0  0  0  0  0
   55.0358    0.8062   -3.5552 H   0  0  0  0  0  0  0  0  0  0  0  0
   55.5980    2.8172   -4.5811 H   0  0  0  0  0  0  0  0  0  0  0  0
   56.5952    2.7670   -6.0743 H   0  0  0  0  0  0  0  0  0  0  0  0
   54.9420    2.0644   -6.0743 H   0  0  0  0  0  0  0  0  0  0  0  0
   54.4826   -1.1941   -2.1921 H   0  0  0  0  0  0  0  0  0  0  0  0
   56.1343   -3.5944   -3.1894 H   0  0  0  0  0  0  0  0  0  0  0  0
   54.5672   -3.8959   -0.9036 H   0  0  0  0  0  0  0  0  0  0  0  0
   56.0096   -2.3307   -0.4320 H   0  0  0  0  0  0  0  0  0  0  0  0
   56.7334   -4.9210   -1.1362 H   0  0  0  0  0  0  0  0  0  0  0  0
   58.3182   -4.0410   -1.1078 H   0  0  0  0  0  0  0  0  0  0  0  0
   57.0007   -3.2472    1.0613 H   0  0  0  0  0  0  0  0  0  0  0  0
   55.9682   -3.3039   -4.6530 H   0  0  0  0  0  0  0  0  0  0  0  0
   55.2989   -1.1895   -6.1101 H   0  0  0  0  0  0  0  0  0  0  0  0
   55.9481   -2.6651   -6.9024 H   0  0  0  0  0  0  0  0  0  0  0  0
   54.1797   -2.3498   -6.9024 H   0  0  0  0  0  0  0  0  0  0  0  0
   52.6536   -3.4897   -4.0649 H   0  0  0  0  0  0  0  0  0  0  0  0
   52.4010   -6.0278   -5.6266 H   0  0  0  0  0  0  0  0  0  0  0  0
   51.9909   -5.5190   -2.6612 H   0  0  0  0  0  0  0  0  0  0  0  0
   50.9196   -6.7022   -3.4853 H   0  0  0  0  0  0  0  0  0  0  0  0
   52.6988   -6.9496   -3.4853 H   0  0  0  0  0  0  0  0  0  0  0  0
  1  2  1  0
  1  6  1  0
  9  1  1  0
  2  3  1  0
  2  7  2  0
  3  4  1  0
  4  5  1  0
  4  8  2  0
  5  6  2  0
  9 10  1  0
  9 14  1  0
 10 11  1  0
 10 12  1  0
 12 13  1  0
 12 15  1  0
 13 14  1  0
 13 16  1  0
 16 17  1  0
 17 18  1  0
 18 19  2  0
 18 20  1  6
 18 21  1  0
 21 22  1  0
 22 23  2  0
 22 24  1  1
 22 25  1  0
 26 25  1  0
 26 27  1  0
 26 37  1  0
 27 28  1  0
 27 32  1  0
 28 29  1  0
 29 30  2  0
 29 31  1  0
 32 33  1  0
 32 34  1  0
 33 40  1  0
 34 35  1  0
 34 36  1  0
 36 37  1  0
 36 38  1  0
 38 39  1  0
 40 41  1  0
 40 43  1  0
 41 42  2  0
 41 44  1  0
 44 45  1  0
 45 46  1  0
 45 49  1  0
 46 47  2  0
 46 48  1  0
  3 50  1  0
  5 51  1  0
  6 52  1  0
  9 53  1  6
 10 54  1  1
 11 55  1  0
 12 56  1  1
 13 57  1  6
 15 58  1  0
 16 59  1  0
 16 60  1  0
 26 61  1  6
 27 62  1  6
 28 63  1  0
 31 64  1  0
 31 65  1  0
 31 66  1  0
 32 67  1  1
 34 68  1  6
 35 69  1  0
 36 70  1  1
 38 71  1  0
 38 72  1  0
 39 73  1  0
 40 74  1  1
 43 75  1  0
 43 76  1  0
 43 77  1  0
 44 78  1  0
 45 79  1  6
 49 80  1  0
 49 81  1  0
 49 82  1  0
M  CHG  3  20  -1  24  -1  48  -1
M  END
>  <filename_input>  (6) 
8DP2_UMA_docked.sdf

>  <pdb_id>  (6) 
8DP2_UMA

>  <pose_rank>  (6) 
5

>  <num_atoms_heavy>  (6) 
49

>  <num_torsions>  (6) 
15

>  <pose>  (6) 
[56.4771072401076, 0.08668135792961512, -1.3164688877324815, 1.7244411848716295, 1.3647033957319277, 1.2925001508395186, 0.08261305279900455, -0.21996476629919587, -3.4593408818382017, -3.258017366306998, 6.226140388525735, -0.22310275376939068, -0.6793187765327835, 0.5307255589642454, 3.859686128348584, -7.7073895818634695, 0.9782851437796904, 8.33964064072906, 0.08767656906826983, -0.8666796938470817, -3.0585145990131886]

>  <energy>  (6) 
-704.6659397085447

>  <inter_energy>  (6) 
-758.1898861714204

>  <intra_energy>  (6) 
58.96953586620353

>  <rmsd>  (6) 
3.97743

>  <sdf_rank>  (6) 
0

$$$$

     RDKit          3D

 82 84  0  0  0  0  0  0  0  0999 V2000
   56.8412    2.3955   -2.8461 N   0  0  0  0  0  0  0  0  0  0  0  0
   56.7340    3.7204   -3.2215 C   0  0  0  0  0  0  0  0  0  0  0  0
   56.9388    3.9619   -4.5561 N   0  0  0  0  0  0  0  0  0  0  0  0
   57.2308    3.0304   -5.5278 C   0  0  0  0  0  0  0  0  0  0  0  0
   57.3232    1.6744   -5.0599 C   0  0  0  0  0  0  0  0  0  0  0  0
   57.1300    1.4059   -3.7599 C   0  0  0  0  0  0  0  0  0  0  0  0
   56.4316    4.6110   -2.4381 O   0  0  0  0  0  0  0  0  0  0  0  0
   57.3677    3.3923   -6.6884 O   0  0  0  0  0  0  0  0  0  0  0  0
   56.5902    2.0666   -1.4491 C   0  0  1  0  0  0  0  0  0  0  0  0
   55.1576    1.6396   -1.1882 C   0  0  2  0  0  0  0  0  0  0  0  0
   54.2764    2.7604   -1.1089 O   0  0  0  0  0  0  0  0  0  0  0  0
   55.3311    0.8738    0.1285 C   0  0  1  0  0  0  0  0  0  0  0  0
   56.7410    0.2811    0.0023 C   0  0  2  0  0  0  0  0  0  0  0  0
   57.3542    0.9295   -1.1336 O   0  0  0  0  0  0  0  0  0  0  0  0
   55.2698    1.7844    1.2267 O   0  0  0  0  0  0  0  0  0  0  0  0
   56.8218   -1.2169   -0.1792 C   0  0  0  0  0  0  0  0  0  0  0  0
   56.7815   -1.4986   -1.6009 O   0  0  0  0  0  0  0  0  0  0  0  0
   56.5456   -2.9483   -2.1726 P   0  0  1  0  0  0  0  0  0  0  0  0
   55.6992   -3.7249   -1.2512 O   0  0  0  0  0  0  0  0  0  0  0  0
   56.1260   -2.8830   -3.6255 O   0  0  0  0  0  0  0  0  0  0  0  0
   58.0318   -3.5116   -2.1657 O   0  0  0  0  0  0  0  0  0  0  0  0
   59.1167   -3.7895   -1.0458 P   0  0  2  0  0  0  0  0  0  0  0  0
   60.0688   -4.8539   -1.5099 O   0  0  0  0  0  0  0  0  0  0  0  0
   58.4477   -4.0086    0.2827 O   0  0  0  0  0  0  0  0  0  0  0  0
   59.9680   -2.4094   -1.0187 O   0  0  0  0  0  0  0  0  0  0  0  0
   61.1399   -2.3325   -1.7883 C   0  0  2  0  0  0  0  0  0  0  0  0
   62.3125   -2.1641   -0.8338 C   0  0  2  0  0  0  0  0  0  0  0  0
   62.3445   -3.2851    0.0924 N   0  0  0  0  0  0  0  0  0  0  0  0
   62.9315   -4.4561   -0.1777 C   0  0  0  0  0  0  0  0  0  0  0  0
   63.4990   -4.6686   -1.2409 O   0  0  0  0  0  0  0  0  0  0  0  0
   62.8374   -5.5039    0.8922 C   0  0  0  0  0  0  0  0  0  0  0  0
   62.1330   -0.8364   -0.0963 C   0  0  1  0  0  0  0  0  0  0  0  0
   63.3308   -0.6109    0.6598 O   0  0  0  0  0  0  0  0  0  0  0  0
   62.1248    0.2647   -1.1441 C   0  0  2  0  0  0  0  0  0  0  0  0
   61.9734    1.5434   -0.5372 O   0  0  0  0  0  0  0  0  0  0  0  0
   60.9888    0.0348   -2.1385 C   0  0  2  0  0  0  0  0  0  0  0  0
   61.0983   -1.2770   -2.7351 O   0  0  0  0  0  0  0  0  0  0  0  0
   61.0242    1.0284   -3.2829 C   0  0  0  0  0  0  0  0  0  0  0  0
   62.3656    1.2635   -3.7410 O   0  0  0  0  0  0  0  0  0  0  0  0
   63.1490   -0.1371    2.0059 C   0  0  1  0  0  0  0  0  0  0  0  0
   63.7778   -1.1263    2.9754 C   0  0  0  0  0  0  0  0  0  0  0  0
   63.5123   -1.0673    4.1737 O   0  0  0  0  0  0  0  0  0  0  0  0
   63.8261    1.2105    2.1133 C   0  0  0  0  0  0  0  0  0  0  0  0
   64.5944   -2.0463    2.4450 N   0  0  0  0  0  0  0  0  0  0  0  0
   65.3203   -3.0110    3.2578 C   0  0  2  0  0  0  0  0  0  0  0  0
   66.5729   -2.3974    3.8621 C   0  0  0  0  0  0  0  0  0  0  0  0
   66.6406   -1.2436    4.2538 O   0  0  0  0  0  0  0  0  0  0  0  0
   67.5835   -3.2404    3.8585 O   0  0  0  0  0  0  0  0  0  0  0  0
   65.7444   -4.2073    2.4118 C   0  0  0  0  0  0  0  0  0  0  0  0
   56.8668    4.9422   -4.8637 H   0  0  0  0  0  0  0  0  0  0  0  0
   57.5511    0.8609   -5.7644 H   0  0  0  0  0  0  0  0  0  0  0  0
   57.2044    0.3646   -3.4132 H   0  0  0  0  0  0  0  0  0  0  0  0
   56.8278    2.9669   -0.8634 H   0  0  0  0  0  0  0  0  0  0  0  0
   54.6889    1.0357   -1.9792 H   0  0  0  0  0  0  0  0  0  0  0  0
   54.1048    2.9786   -0.1586 H   0  0  0  0  0  0  0  0  0  0  0  0
   54.5572    0.1118    0.3030 H   0  0  0  0  0  0  0  0  0  0  0  0
   57.2526    0.4625    0.9590 H   0  0  0  0  0  0  0  0  0  0  0  0
   55.3039    1.2786    2.0771 H   0  0  0  0  0  0  0  0  0  0  0  0
   57.7615   -1.5948    0.2498 H   0  0  0  0  0  0  0  0  0  0  0  0
   55.9816   -1.7097    0.3320 H   0  0  0  0  0  0  0  0  0  0  0  0
   61.2476   -3.2566   -2.3753 H   0  0  0  0  0  0  0  0  0  0  0  0
   63.2691   -2.1494   -1.3766 H   0  0  0  0  0  0  0  0  0  0  0  0
   61.8889   -3.1706    1.0090 H   0  0  0  0  0  0  0  0  0  0  0  0
   62.8806   -5.0234    1.8808 H   0  0  0  0  0  0  0  0  0  0  0  0
   61.8868   -6.0478    0.7901 H   0  0  0  0  0  0  0  0  0  0  0  0
   63.6758   -6.2086    0.7901 H   0  0  0  0  0  0  0  0  0  0  0  0
   61.2236   -0.8494    0.5224 H   0  0  0  0  0  0  0  0  0  0  0  0
   63.0884    0.2382   -1.6739 H   0  0  0  0  0  0  0  0  0  0  0  0
   61.9851    1.4447    0.4478 H   0  0  0  0  0  0  0  0  0  0  0  0
   60.0559    0.1473   -1.5667 H   0  0  0  0  0  0  0  0  0  0  0  0
   60.4267    0.6325   -4.1174 H   0  0  0  0  0  0  0  0  0  0  0  0
   60.6129    1.9825   -2.9217 H   0  0  0  0  0  0  0  0  0  0  0  0
   62.9668    1.3688   -2.9615 H   0  0  0  0  0  0  0  0  0  0  0  0
   62.0811   -0.0415    2.2516 H   0  0  0  0  0  0  0  0  0  0  0  0
   63.9572    1.4715    3.1739 H   0  0  0  0  0  0  0  0  0  0  0  0
   64.8094    1.1670    1.6221 H   0  0  0  0  0  0  0  0  0  0  0  0
   63.2043    1.9735    1.6221 H   0  0  0  0  0  0  0  0  0  0  0  0
   64.7132   -2.0719    1.4222 H   0  0  0  0  0  0  0  0  0  0  0  0
   64.6416   -3.3287    4.0630 H   0  0  0  0  0  0  0  0  0  0  0  0
   66.0385   -5.0371    3.0714 H   0  0  0  0  0  0  0  0  0  0  0  0
   64.9037   -4.5239    1.7769 H   0  0  0  0  0  0  0  0  0  0  0  0
   66.5967   -3.9238    1.7769 H   0  0  0  0  0  0  0  0  0  0  0  0
  1  2  1  0
  1  6  1  0
  9  1  1  0
  2  3  1  0
  2  7  2  0
  3  4  1  0
  4  5  1  0
  4  8  2  0
  5  6  2  0
  9 10  1  0
  9 14  1  0
 10 11  1  0
 10 12  1  0
 12 13  1  0
 12 15  1  0
 13 14  1  0
 13 16  1  0
 16 17  1  0
 17 18  1  0
 18 19  2  0
 18 20  1  6
 18 21  1  0
 21 22  1  0
 22 23  2  0
 22 24  1  1
 22 25  1  0
 26 25  1  0
 26 27  1  0
 26 37  1  0
 27 28  1  0
 27 32  1  0
 28 29  1  0
 29 30  2  0
 29 31  1  0
 32 33  1  0
 32 34  1  0
 33 40  1  0
 34 35  1  0
 34 36  1  0
 36 37  1  0
 36 38  1  0
 38 39  1  0
 40 41  1  0
 40 43  1  0
 41 42  2  0
 41 44  1  0
 44 45  1  0
 45 46  1  0
 45 49  1  0
 46 47  2  0
 46 48  1  0
  3 50  1  0
  5 51  1  0
  6 52  1  0
  9 53  1  1
 10 54  1  6
 11 55  1  0
 12 56  1  1
 13 57  1  1
 15 58  1  0
 16 59  1  0
 16 60  1  0
 26 61  1  6
 27 62  1  6
 28 63  1  0
 31 64  1  0
 31 65  1  0
 31 66  1  0
 32 67  1  1
 34 68  1  6
 35 69  1  0
 36 70  1  1
 38 71  1  0
 38 72  1  0
 39 73  1  0
 40 74  1  1
 43 75  1  0
 43 76  1  0
 43 77  1  0
 44 78  1  0
 45 79  1  1
 49 80  1  0
 49 81  1  0
 49 82  1  0
M  CHG  3  20  -1  24  -1  48  -1
M  END
>  <filename_input>  (7) 
8DP2_UMA_docked.sdf

>  <pdb_id>  (7) 
8DP2_UMA

>  <pose_rank>  (7) 
6

>  <num_atoms_heavy>  (7) 
49

>  <num_torsions>  (7) 
15

>  <pose>  (7) 
[59.96798736748549, -2.409385603088667, -1.0187167518245532, -1.473225905785107, 2.405770151652283, -1.3955147685743077, 0.3529588919875689, -0.4276026720900987, -0.3965495846845051, -0.46294982423503506, -0.11235869635709797, -0.10924778081780834, 0.21117490978150497, 0.8550351941031558, 3.310383435906499, 6.902674033675739, -2.184206537448584, 3.9214161203964073, 1.0275821181461802, 0.7282515387420732, -0.2905984094763412]

>  <energy>  (7) 
-729.6264485427932

>  <inter_energy>  (7) 
-781.5565456462111

>  <intra_energy>  (7) 
52.12216617402897

>  <rmsd>  (7) 
9.87976

>  <sdf_rank>  (7) 
0

$$$$

     RDKit          3D

 82 84  0  0  0  0  0  0  0  0999 V2000
   64.6086   -0.7535    3.6306 N   0  0  0  0  0  0  0  0  0  0  0  0
   65.1795   -0.4805    4.8583 C   0  0  0  0  0  0  0  0  0  0  0  0
   66.0681   -1.4247    5.3059 N   0  0  0  0  0  0  0  0  0  0  0  0
   66.4340   -2.5850    4.6602 C   0  0  0  0  0  0  0  0  0  0  0  0
   65.7996   -2.7970    3.3879 C   0  0  0  0  0  0  0  0  0  0  0  0
   64.9241   -1.8929    2.9236 C   0  0  0  0  0  0  0  0  0  0  0  0
   64.9520    0.5470    5.4836 O   0  0  0  0  0  0  0  0  0  0  0  0
   67.2596   -3.3268    5.1747 O   0  0  0  0  0  0  0  0  0  0  0  0
   63.6895    0.2330    3.0785 C   0  0  1  0  0  0  0  0  0  0  0  0
   64.3829    1.2757    2.2213 C   0  0  2  0  0  0  0  0  0  0  0  0
   65.0199    2.2767    3.0159 O   0  0  0  0  0  0  0  0  0  0  0  0
   63.1997    1.7833    1.3892 C   0  0  1  0  0  0  0  0  0  0  0  0
   62.3098    0.5401    1.2565 C   0  0  2  0  0  0  0  0  0  0  0  0
   62.8313   -0.4341    2.1870 O   0  0  0  0  0  0  0  0  0  0  0  0
   62.5147    2.8123    2.1039 O   0  0  0  0  0  0  0  0  0  0  0  0
   62.2313   -0.0811   -0.1189 C   0  0  0  0  0  0  0  0  0  0  0  0
   61.9828    0.9795   -1.0758 O   0  0  0  0  0  0  0  0  0  0  0  0
   62.4820    0.9095   -2.5690 P   0  0  1  0  0  0  0  0  0  0  0  0
   62.7306    2.2663   -3.0845 O   0  0  0  0  0  0  0  0  0  0  0  0
   63.5927   -0.1094   -2.7090 O   0  0  0  0  0  0  0  0  0  0  0  0
   61.2073    0.2749   -3.2749 O   0  0  0  0  0  0  0  0  0  0  0  0
   59.7476    0.7863   -3.6155 P   0  0  2  0  0  0  0  0  0  0  0  0
   59.6244    1.0337   -5.0914 O   0  0  0  0  0  0  0  0  0  0  0  0
   59.3677    1.9190   -2.7027 O   0  0  0  0  0  0  0  0  0  0  0  0
   58.8285   -0.5126   -3.3019 O   0  0  0  0  0  0  0  0  0  0  0  0
   57.4345   -0.3500   -3.2608 C   0  0  2  0  0  0  0  0  0  0  0  0
   56.9328   -0.9660   -1.9634 C   0  0  2  0  0  0  0  0  0  0  0  0
   57.5877   -0.3182   -0.8378 N   0  0  0  0  0  0  0  0  0  0  0  0
   57.0306    0.6606   -0.1163 C   0  0  0  0  0  0  0  0  0  0  0  0
   55.9071    1.0838   -0.3532 O   0  0  0  0  0  0  0  0  0  0  0  0
   57.8717    1.2253    0.9906 C   0  0  0  0  0  0  0  0  0  0  0  0
   57.2418   -2.4633   -2.0020 C   0  0  1  0  0  0  0  0  0  0  0  0
   56.6047   -3.0530   -0.8603 O   0  0  0  0  0  0  0  0  0  0  0  0
   56.5065   -3.0455   -3.1981 C   0  0  2  0  0  0  0  0  0  0  0  0
   56.7317   -4.4473   -3.3008 O   0  0  0  0  0  0  0  0  0  0  0  0
   56.9673   -2.3597   -4.4824 C   0  0  2  0  0  0  0  0  0  0  0  0
   56.7880   -0.9292   -4.3829 O   0  0  0  0  0  0  0  0  0  0  0  0
   56.1633   -2.8077   -5.6871 C   0  0  0  0  0  0  0  0  0  0  0  0
   57.0050   -3.3617   -6.7113 O   0  0  0  0  0  0  0  0  0  0  0  0
   55.1944   -2.8041   -0.7244 C   0  0  1  0  0  0  0  0  0  0  0  0
   54.4448   -4.1271   -0.7673 C   0  0  0  0  0  0  0  0  0  0  0  0
   54.8338   -5.0772   -0.0921 O   0  0  0  0  0  0  0  0  0  0  0  0
   54.9758   -2.1163    0.6042 C   0  0  0  0  0  0  0  0  0  0  0  0
   53.3575   -4.1731   -1.5484 N   0  0  0  0  0  0  0  0  0  0  0  0
   52.5831   -5.3901   -1.7421 C   0  0  2  0  0  0  0  0  0  0  0  0
   52.2890   -5.6328   -3.2135 C   0  0  0  0  0  0  0  0  0  0  0  0
   53.1237   -6.0167   -4.0168 O   0  0  0  0  0  0  0  0  0  0  0  0
   51.0472   -5.3260   -3.5232 O   0  0  0  0  0  0  0  0  0  0  0  0
   51.2505   -5.2956   -1.0059 C   0  0  0  0  0  0  0  0  0  0  0  0
   66.5077   -1.2474    6.2203 H   0  0  0  0  0  0  0  0  0  0  0  0
   66.0308   -3.6962    2.7980 H   0  0  0  0  0  0  0  0  0  0  0  0
   64.4439   -2.0665    1.9493 H   0  0  0  0  0  0  0  0  0  0  0  0
   63.1925    0.7167    3.9323 H   0  0  0  0  0  0  0  0  0  0  0  0
   65.2167    0.9081    1.6052 H   0  0  0  0  0  0  0  0  0  0  0  0
   64.8883    2.0699    3.9751 H   0  0  0  0  0  0  0  0  0  0  0  0
   63.4917    2.2101    0.4183 H   0  0  0  0  0  0  0  0  0  0  0  0
   61.2781    0.8597    1.4649 H   0  0  0  0  0  0  0  0  0  0  0  0
   62.6152    2.6613    3.0771 H   0  0  0  0  0  0  0  0  0  0  0  0
   63.1806   -0.5834   -0.3564 H   0  0  0  0  0  0  0  0  0  0  0  0
   61.4232   -0.8264   -0.1560 H   0  0  0  0  0  0  0  0  0  0  0  0
   57.1949    0.7229   -3.2985 H   0  0  0  0  0  0  0  0  0  0  0  0
   55.8481   -0.8238   -1.8482 H   0  0  0  0  0  0  0  0  0  0  0  0
   58.5349   -0.6312   -0.5815 H   0  0  0  0  0  0  0  0  0  0  0  0
   57.4421    0.9368    1.9612 H   0  0  0  0  0  0  0  0  0  0  0  0
   58.8955    0.8308    0.9110 H   0  0  0  0  0  0  0  0  0  0  0  0
   57.8943    2.3221    0.9110 H   0  0  0  0  0  0  0  0  0  0  0  0
   58.3269   -2.6407   -2.0350 H   0  0  0  0  0  0  0  0  0  0  0  0
   55.4299   -2.8714   -3.0541 H   0  0  0  0  0  0  0  0  0  0  0  0
   56.7947   -4.8388   -2.3937 H   0  0  0  0  0  0  0  0  0  0  0  0
   58.0256   -2.6312   -4.6100 H   0  0  0  0  0  0  0  0  0  0  0  0
   55.4394   -3.5722   -5.3683 H   0  0  0  0  0  0  0  0  0  0  0  0
   55.6500   -1.9283   -6.1032 H   0  0  0  0  0  0  0  0  0  0  0  0
   57.7541   -3.8547   -6.2920 H   0  0  0  0  0  0  0  0  0  0  0  0
   54.8234   -2.1685   -1.5419 H   0  0  0  0  0  0  0  0  0  0  0  0
   55.1988   -2.8180    1.4215 H   0  0  0  0  0  0  0  0  0  0  0  0
   55.6408   -1.2432    0.6789 H   0  0  0  0  0  0  0  0  0  0  0  0
   53.9289   -1.7872    0.6789 H   0  0  0  0  0  0  0  0  0  0  0  0
   53.0578   -3.3137   -2.0306 H   0  0  0  0  0  0  0  0  0  0  0  0
   53.1852   -6.2210   -1.3458 H   0  0  0  0  0  0  0  0  0  0  0  0
   51.4295   -5.3083    0.0793 H   0  0  0  0  0  0  0  0  0  0  0  0
   50.7441   -4.3593   -1.2831 H   0  0  0  0  0  0  0  0  0  0  0  0
   50.6170   -6.1511   -1.2831 H   0  0  0  0  0  0  0  0  0  0  0  0
  1  2  1  0
  1  6  1  0
  9  1  1  0
  2  3  1  0
  2  7  2  0
  3  4  1  0
  4  5  1  0
  4  8  2  0
  5  6  2  0
  9 10  1  0
  9 14  1  0
 10 11  1  0
 10 12  1  0
 12 13  1  0
 12 15  1  0
 13 14  1  0
 13 16  1  0
 16 17  1  0
 17 18  1  0
 18 19  2  0
 18 20  1  1
 18 21  1  0
 21 22  1  0
 22 23  2  0
 22 24  1  1
 22 25  1  0
 26 25  1  0
 26 27  1  0
 26 37  1  0
 27 28  1  0
 27 32  1  0
 28 29  1  0
 29 30  2  0
 29 31  1  0
 32 33  1  0
 32 34  1  0
 33 40  1  0
 34 35  1  0
 34 36  1  0
 36 37  1  0
 36 38  1  0
 38 39  1  0
 40 41  1  0
 40 43  1  0
 41 42  2  0
 41 44  1  0
 44 45  1  0
 45 46  1  0
 45 49  1  0
 46 47  2  0
 46 48  1  0
  3 50  1  0
  5 51  1  0
  6 52  1  0
  9 53  1  1
 10 54  1  6
 11 55  1  0
 12 56  1  6
 13 57  1  1
 15 58  1  0
 16 59  1  0
 16 60  1  0
 26 61  1  1
 27 62  1  1
 28 63  1  0
 31 64  1  0
 31 65  1  0
 31 66  1  0
 32 67  1  6
 34 68  1  1
 35 69  1  0
 36 70  1  6
 38 71  1  0
 38 72  1  0
 39 73  1  0
 40 74  1  6
 43 75  1  0
 43 76  1  0
 43 77  1  0
 44 78  1  0
 45 79  1  1
 49 80  1  0
 49 81  1  0
 49 82  1  0
M  CHG  3  20  -1  24  -1  48  -1
M  END
>  <filename_input>  (8) 
8DP2_UMA_docked.sdf

>  <pdb_id>  (8) 
8DP2_UMA

>  <pose_rank>  (8) 
7

>  <num_atoms_heavy>  (8) 
49

>  <num_torsions>  (8) 
15

>  <pose>  (8) 
[58.828542418403295, -0.5126051898671266, -3.30187753155922, 4.143056568847091, 1.5407392958190078, -0.8854149492186931, 18.965788458797117, -0.18924184960594034, -3.2516606126107623, -3.4117172495027956, -0.1461766183398961, -2.6872659464300845, -0.6962161484625143, 1.5063105464517206, 51.88521883334456, -19.06136773928898, -27.167626846349695, -49.511635468116665, -18.562196298211408, 29.745695460441866, -6.6548131520944205]

>  <energy>  (8) 
-709.4025521761322

>  <inter_energy>  (8) 
-742.5796425961818

>  <intra_energy>  (8) 
28.33406291092986

>  <rmsd>  (8) 
4.35046

>  <sdf_rank>  (8) 
0

$$$$

     RDKit          3D

 82 84  0  0  0  0  0  0  0  0999 V2000
   63.4121   -0.3393    1.6137 N   0  0  0  0  0  0  0  0  0  0  0  0
   63.9612    0.3211    2.6953 C   0  0  0  0  0  0  0  0  0  0  0  0
   64.5357   -0.4919    3.6389 N   0  0  0  0  0  0  0  0  0  0  0  0
   64.6147   -1.8666    3.6056 C   0  0  0  0  0  0  0  0  0  0  0  0
   64.0235   -2.4802    2.4480 C   0  0  0  0  0  0  0  0  0  0  0  0
   63.4519   -1.7123    1.5083 C   0  0  0  0  0  0  0  0  0  0  0  0
   63.9809    1.5415    2.7891 O   0  0  0  0  0  0  0  0  0  0  0  0
   65.1788   -2.4604    4.5143 O   0  0  0  0  0  0  0  0  0  0  0  0
   62.8259    0.4706    0.5539 C   0  0  1  0  0  0  0  0  0  0  0  0
   63.3140    0.0815   -0.8292 C   0  0  2  0  0  0  0  0  0  0  0  0
   64.6098    0.6152   -1.1036 O   0  0  0  0  0  0  0  0  0  0  0  0
   62.1910    0.6645   -1.6947 C   0  0  1  0  0  0  0  0  0  0  0  0
   60.9556    0.5357   -0.7934 C   0  0  2  0  0  0  0  0  0  0  0  0
   61.4464    0.2014    0.5235 O   0  0  0  0  0  0  0  0  0  0  0  0
   62.4625    2.0381   -1.9747 O   0  0  0  0  0  0  0  0  0  0  0  0
   59.9266   -0.4882   -1.2132 C   0  0  0  0  0  0  0  0  0  0  0  0
   59.4502   -1.1598   -0.0197 O   0  0  0  0  0  0  0  0  0  0  0  0
   58.4407   -2.3689   -0.0720 P   0  0  1  0  0  0  0  0  0  0  0  0
   58.0338   -2.6298   -1.4630 O   0  0  0  0  0  0  0  0  0  0  0  0
   58.9687   -3.5351    0.7358 O   0  0  0  0  0  0  0  0  0  0  0  0
   57.2237   -1.7708    0.7570 O   0  0  0  0  0  0  0  0  0  0  0  0
   55.7375   -1.3462    0.4119 P   0  0  2  0  0  0  0  0  0  0  0  0
   55.0628   -0.8048    1.6393 O   0  0  0  0  0  0  0  0  0  0  0  0
   55.0346   -2.4589   -0.3149 O   0  0  0  0  0  0  0  0  0  0  0  0
   55.9458   -0.0793   -0.5790 O   0  0  0  0  0  0  0  0  0  0  0  0
   54.8092    0.5176   -1.1476 C   0  0  2  0  0  0  0  0  0  0  0  0
   55.0365    0.6136   -2.6488 C   0  0  2  0  0  0  0  0  0  0  0  0
   55.2763   -0.7168   -3.1857 N   0  0  0  0  0  0  0  0  0  0  0  0
   54.7187   -1.1759   -4.3113 C   0  0  0  0  0  0  0  0  0  0  0  0
   53.9579   -0.4938   -4.9847 O   0  0  0  0  0  0  0  0  0  0  0  0
   55.0646   -2.5855   -4.6920 C   0  0  0  0  0  0  0  0  0  0  0  0
   56.2338    1.5349   -2.8863 C   0  0  1  0  0  0  0  0  0  0  0  0
   56.3193    1.7560   -4.3009 O   0  0  0  0  0  0  0  0  0  0  0  0
   55.8806    2.8937   -2.3039 C   0  0  2  0  0  0  0  0  0  0  0  0
   56.9436    3.8210   -2.4947 O   0  0  0  0  0  0  0  0  0  0  0  0
   55.5795    2.7634   -0.8124 C   0  0  2  0  0  0  0  0  0  0  0  0
   54.5315    1.7930   -0.5921 O   0  0  0  0  0  0  0  0  0  0  0  0
   55.0866    4.0667   -0.2151 C   0  0  0  0  0  0  0  0  0  0  0  0
   54.1737    3.8414    0.8714 O   0  0  0  0  0  0  0  0  0  0  0  0
   57.3951    1.0861   -4.9816 C   0  0  1  0  0  0  0  0  0  0  0  0
   57.4233    1.5314   -6.4359 C   0  0  0  0  0  0  0  0  0  0  0  0
   58.3284    1.1557   -7.1773 O   0  0  0  0  0  0  0  0  0  0  0  0
   58.6838    1.4656   -4.2881 C   0  0  0  0  0  0  0  0  0  0  0  0
   56.4156    2.3157   -6.8406 N   0  0  0  0  0  0  0  0  0  0  0  0
   56.3485    2.8747   -8.1828 C   0  0  2  0  0  0  0  0  0  0  0  0
   56.6087    4.3723   -8.1743 C   0  0  0  0  0  0  0  0  0  0  0  0
   55.7330    5.2127   -8.3020 O   0  0  0  0  0  0  0  0  0  0  0  0
   57.8914    4.6472   -8.0698 O   0  0  0  0  0  0  0  0  0  0  0  0
   54.9680    2.6411   -8.7880 C   0  0  0  0  0  0  0  0  0  0  0  0
   64.9515   -0.0258    4.4578 H   0  0  0  0  0  0  0  0  0  0  0  0
   64.0397   -3.5741    2.3332 H   0  0  0  0  0  0  0  0  0  0  0  0
   63.0016   -2.1932    0.6274 H   0  0  0  0  0  0  0  0  0  0  0  0
   63.0937    1.5158    0.7681 H   0  0  0  0  0  0  0  0  0  0  0  0
   63.4704   -0.9948   -0.9940 H   0  0  0  0  0  0  0  0  0  0  0  0
   65.0751    0.8068   -0.2510 H   0  0  0  0  0  0  0  0  0  0  0  0
   62.0715    0.1593   -2.6645 H   0  0  0  0  0  0  0  0  0  0  0  0
   60.4173    1.4935   -0.8473 H   0  0  0  0  0  0  0  0  0  0  0  0
   62.5607    2.5351   -1.1241 H   0  0  0  0  0  0  0  0  0  0  0  0
   59.0880    0.0115   -1.7203 H   0  0  0  0  0  0  0  0  0  0  0  0
   60.3720   -1.2149   -1.9086 H   0  0  0  0  0  0  0  0  0  0  0  0
   53.9276   -0.1026   -0.9280 H   0  0  0  0  0  0  0  0  0  0  0  0
   54.1548    1.0280   -3.1595 H   0  0  0  0  0  0  0  0  0  0  0  0
   55.9121   -1.3412   -2.6693 H   0  0  0  0  0  0  0  0  0  0  0  0
   55.2119   -3.1854   -3.7818 H   0  0  0  0  0  0  0  0  0  0  0  0
   54.2456   -3.0162   -5.2866 H   0  0  0  0  0  0  0  0  0  0  0  0
   55.9901   -2.5881   -5.2866 H   0  0  0  0  0  0  0  0  0  0  0  0
   57.1514    1.1070   -2.4564 H   0  0  0  0  0  0  0  0  0  0  0  0
   54.9887    3.2677   -2.8278 H   0  0  0  0  0  0  0  0  0  0  0  0
   57.2844    4.1183   -1.6140 H   0  0  0  0  0  0  0  0  0  0  0  0
   56.5238    2.4607   -0.3362 H   0  0  0  0  0  0  0  0  0  0  0  0
   55.9502    4.6374    0.1573 H   0  0  0  0  0  0  0  0  0  0  0  0
   54.5547    4.6243   -1.0001 H   0  0  0  0  0  0  0  0  0  0  0  0
   54.6493    3.9588    1.7317 H   0  0  0  0  0  0  0  0  0  0  0  0
   57.2619   -0.0055   -4.9556 H   0  0  0  0  0  0  0  0  0  0  0  0
   58.5400    1.4233   -3.1984 H   0  0  0  0  0  0  0  0  0  0  0  0
   59.4783    0.7633   -4.5807 H   0  0  0  0  0  0  0  0  0  0  0  0
   58.9708    2.4864   -4.5807 H   0  0  0  0  0  0  0  0  0  0  0  0
   55.6588    2.5315   -6.1761 H   0  0  0  0  0  0  0  0  0  0  0  0
   57.1224    2.3707   -8.7803 H   0  0  0  0  0  0  0  0  0  0  0  0
   54.2304    2.5163   -7.9815 H   0  0  0  0  0  0  0  0  0  0  0  0
   54.6891    3.5048   -9.4094 H   0  0  0  0  0  0  0  0  0  0  0  0
   54.9888    1.7337   -9.4094 H   0  0  0  0  0  0  0  0  0  0  0  0
  1  2  1  0
  1  6  1  0
  9  1  1  0
  2  3  1  0
  2  7  2  0
  3  4  1  0
  4  5  1  0
  4  8  2  0
  5  6  2  0
  9 10  1  0
  9 14  1  0
 10 11  1  0
 10 12  1  0
 12 13  1  0
 12 15  1  0
 13 14  1  0
 13 16  1  0
 16 17  1  0
 17 18  1  0
 18 19  2  0
 18 20  1  1
 18 21  1  0
 21 22  1  0
 22 23  2  0
 22 24  1  6
 22 25  1  0
 26 25  1  0
 26 27  1  0
 26 37  1  0
 27 28  1  0
 27 32  1  0
 28 29  1  0
 29 30  2  0
 29 31  1  0
 32 33  1  0
 32 34  1  0
 33 40  1  0
 34 35  1  0
 34 36  1  0
 36 37  1  0
 36 38  1  0
 38 39  1  0
 40 41  1  0
 40 43  1  0
 41 42  2  0
 41 44  1  0
 44 45  1  0
 45 46  1  0
 45 49  1  0
 46 47  2  0
 46 48  1  0
  3 50  1  0
  5 51  1  0
  6 52  1  0
  9 53  1  1
 10 54  1  1
 11 55  1  0
 12 56  1  6
 13 57  1  1
 15 58  1  0
 16 59  1  0
 16 60  1  0
 26 61  1  6
 27 62  1  6
 28 63  1  0
 31 64  1  0
 31 65  1  0
 31 66  1  0
 32 67  1  1
 34 68  1  6
 35 69  1  0
 36 70  1  1
 38 71  1  0
 38 72  1  0
 39 73  1  0
 40 74  1  6
 43 75  1  0
 43 76  1  0
 43 77  1  0
 44 78  1  0
 45 79  1  6
 49 80  1  0
 49 81  1  0
 49 82  1  0
M  CHG  3  20  -1  24  -1  48  -1
M  END
>  <filename_input>  (9) 
8DP2_UMA_docked.sdf

>  <pdb_id>  (9) 
8DP2_UMA

>  <pose_rank>  (9) 
8

>  <num_atoms_heavy>  (9) 
49

>  <num_torsions>  (9) 
15

>  <pose>  (9) 
[55.94579286615521, -0.07931208101967971, -0.5789834685456954, 0.9656858321449912, -1.141789840436495, -0.7726130972427175, 0.12346317221047154, 0.4606726569175523, 1.489501571358011, 0.05413352673415724, 1.016667420858817, -0.4594992565832195, -0.27786989921278077, -1.6022302935376818, 1.7617622522277308, 1.0837991780681144, -7.575260158986817, -2.949284250943763, 0.8809196075837598, 1.6023122219246535, 0.3362300472546474]

>  <energy>  (9) 
-744.2109371501447

>  <inter_energy>  (9) 
-749.9317735855525

>  <intra_energy>  (9) 
12.393213331139453

>  <rmsd>  (9) 
5.70457

>  <sdf_rank>  (9) 
0

$$$$

     RDKit          3D

 82 84  0  0  0  0  0  0  0  0999 V2000
   66.0756   -1.9698    3.7930 N   0  0  0  0  0  0  0  0  0  0  0  0
   66.9480   -1.2860    4.6171 C   0  0  0  0  0  0  0  0  0  0  0  0
   66.3577   -0.3754    5.4560 N   0  0  0  0  0  0  0  0  0  0  0  0
   65.0133   -0.0909    5.5503 C   0  0  0  0  0  0  0  0  0  0  0  0
   64.1702   -0.8447    4.6630 C   0  0  0  0  0  0  0  0  0  0  0  0
   64.7176   -1.7415    3.8290 C   0  0  0  0  0  0  0  0  0  0  0  0
   68.1523   -1.5046    4.6380 O   0  0  0  0  0  0  0  0  0  0  0  0
   64.6277    0.7365    6.3647 O   0  0  0  0  0  0  0  0  0  0  0  0
   66.6355   -2.9841    2.9095 C   0  0  1  0  0  0  0  0  0  0  0  0
   66.1070   -4.3774    3.1957 C   0  0  2  0  0  0  0  0  0  0  0  0
   66.7528   -4.9679    4.3241 O   0  0  0  0  0  0  0  0  0  0  0  0
   66.4056   -5.0679    1.8600 C   0  0  1  0  0  0  0  0  0  0  0  0
   66.2591   -3.9302    0.8406 C   0  0  2  0  0  0  0  0  0  0  0  0
   66.1923   -2.7061    1.6047 O   0  0  0  0  0  0  0  0  0  0  0  0
   67.7444   -5.5645    1.8634 O   0  0  0  0  0  0  0  0  0  0  0  0
   65.0616   -4.0068   -0.0780 C   0  0  0  0  0  0  0  0  0  0  0  0
   65.5116   -3.7182   -1.4257 O   0  0  0  0  0  0  0  0  0  0  0  0
   65.3550   -2.2961   -2.0866 P   0  0  1  0  0  0  0  0  0  0  0  0
   66.6373   -1.5732   -2.0437 O   0  0  0  0  0  0  0  0  0  0  0  0
   64.6561   -2.4078   -3.4246 O   0  0  0  0  0  0  0  0  0  0  0  0
   64.3091   -1.6257   -1.0952 O   0  0  0  0  0  0  0  0  0  0  0  0
   63.9480   -0.1378   -0.6903 P   0  0  2  0  0  0  0  0  0  0  0  0
   64.7332    0.8258   -1.5327 O   0  0  0  0  0  0  0  0  0  0  0  0
   64.0400    0.0319    0.8007 O   0  0  0  0  0  0  0  0  0  0  0  0
   62.4055    0.0021   -1.1716 O   0  0  0  0  0  0  0  0  0  0  0  0
   61.4143   -0.6725   -0.4408 C   0  0  2  0  0  0  0  0  0  0  0  0
   60.1766   -0.7730   -1.3198 C   0  0  2  0  0  0  0  0  0  0  0  0
   60.5145   -1.4727   -2.5494 N   0  0  0  0  0  0  0  0  0  0  0  0
   59.9582   -2.6301   -2.9231 C   0  0  0  0  0  0  0  0  0  0  0  0
   59.1051   -3.1894   -2.2470 O   0  0  0  0  0  0  0  0  0  0  0  0
   60.4551   -3.2153   -4.2123 C   0  0  0  0  0  0  0  0  0  0  0  0
   59.6833    0.6464   -1.6034 C   0  0  1  0  0  0  0  0  0  0  0  0
   58.4224    0.5261   -2.2766 O   0  0  0  0  0  0  0  0  0  0  0  0
   59.3471    1.2837   -0.2650 C   0  0  2  0  0  0  0  0  0  0  0  0
   58.8651    2.6115   -0.4405 O   0  0  0  0  0  0  0  0  0  0  0  0
   60.5829    1.3043    0.6318 C   0  0  2  0  0  0  0  0  0  0  0  0
   61.1154   -0.0301    0.7881 O   0  0  0  0  0  0  0  0  0  0  0  0
   60.2651    1.8031    2.0277 C   0  0  0  0  0  0  0  0  0  0  0  0
   60.7499    3.1393    2.2375 O   0  0  0  0  0  0  0  0  0  0  0  0
   58.3350    1.1473   -3.5711 C   0  0  1  0  0  0  0  0  0  0  0  0
   57.1596    2.1129   -3.5862 C   0  0  0  0  0  0  0  0  0  0  0  0
   56.8676    2.7111   -4.6190 O   0  0  0  0  0  0  0  0  0  0  0  0
   59.6304    1.8887   -3.8126 C   0  0  0  0  0  0  0  0  0  0  0  0
   56.4776    2.2422   -2.4405 N   0  0  0  0  0  0  0  0  0  0  0  0
   55.3753    3.1802   -2.2867 C   0  0  2  0  0  0  0  0  0  0  0  0
   55.6753    4.2194   -1.2188 C   0  0  0  0  0  0  0  0  0  0  0  0
   55.2586    4.1537   -0.0736 O   0  0  0  0  0  0  0  0  0  0  0  0
   56.3871    5.2196   -1.6931 O   0  0  0  0  0  0  0  0  0  0  0  0
   54.1026    2.4436   -1.8813 C   0  0  0  0  0  0  0  0  0  0  0  0
   66.9853    0.1506    6.0807 H   0  0  0  0  0  0  0  0  0  0  0  0
   63.0816   -0.6869    4.6679 H   0  0  0  0  0  0  0  0  0  0  0  0
   64.0625   -2.3115    3.1537 H   0  0  0  0  0  0  0  0  0  0  0  0
   67.7264   -2.9587    3.0482 H   0  0  0  0  0  0  0  0  0  0  0  0
   65.0467   -4.4352    3.4829 H   0  0  0  0  0  0  0  0  0  0  0  0
   66.3577   -4.6067    5.1569 H   0  0  0  0  0  0  0  0  0  0  0  0
   65.7489   -5.9244    1.6475 H   0  0  0  0  0  0  0  0  0  0  0  0
   67.1218   -3.9945    0.1611 H   0  0  0  0  0  0  0  0  0  0  0  0
   68.0518   -5.6785    2.7975 H   0  0  0  0  0  0  0  0  0  0  0  0
   64.6245   -5.0155   -0.0382 H   0  0  0  0  0  0  0  0  0  0  0  0
   64.2948   -3.2817    0.2324 H   0  0  0  0  0  0  0  0  0  0  0  0
   61.7819   -1.6740   -0.1731 H   0  0  0  0  0  0  0  0  0  0  0  0
   59.3777   -1.3399   -0.8194 H   0  0  0  0  0  0  0  0  0  0  0  0
   61.2230   -1.0527   -3.1678 H   0  0  0  0  0  0  0  0  0  0  0  0
   61.1533   -4.0375   -3.9967 H   0  0  0  0  0  0  0  0  0  0  0  0
   59.6035   -3.6000   -4.7926 H   0  0  0  0  0  0  0  0  0  0  0  0
   60.9728   -2.4374   -4.7926 H   0  0  0  0  0  0  0  0  0  0  0  0
   60.4300    1.2157   -2.1764 H   0  0  0  0  0  0  0  0  0  0  0  0
   58.5579    0.6824    0.2100 H   0  0  0  0  0  0  0  0  0  0  0  0
   58.7141    3.0275    0.4451 H   0  0  0  0  0  0  0  0  0  0  0  0
   61.3030    1.9771    0.1430 H   0  0  0  0  0  0  0  0  0  0  0  0
   59.1744    1.7930    2.1702 H   0  0  0  0  0  0  0  0  0  0  0  0
   60.7630    1.1400    2.7505 H   0  0  0  0  0  0  0  0  0  0  0  0
   60.8148    3.3181    3.2091 H   0  0  0  0  0  0  0  0  0  0  0  0
   58.1784    0.3978   -4.3608 H   0  0  0  0  0  0  0  0  0  0  0  0
   60.0883    2.1508   -2.8474 H   0  0  0  0  0  0  0  0  0  0  0  0
   60.3188    1.2479   -4.3831 H   0  0  0  0  0  0  0  0  0  0  0  0
   59.4265    2.8069   -4.3831 H   0  0  0  0  0  0  0  0  0  0  0  0
   56.7436    1.6551   -1.6371 H   0  0  0  0  0  0  0  0  0  0  0  0
   55.2399    3.6794   -3.2575 H   0  0  0  0  0  0  0  0  0  0  0  0
   54.0353    2.4046   -0.7840 H   0  0  0  0  0  0  0  0  0  0  0  0
   53.2275    2.9748   -2.2837 H   0  0  0  0  0  0  0  0  0  0  0  0
   54.1273    1.4202   -2.2837 H   0  0  0  0  0  0  0  0  0  0  0  0
  1  2  1  0
  1  6  1  0
  9  1  1  0
  2  3  1  0
  2  7  2  0
  3  4  1  0
  4  5  1  0
  4  8  2  0
  5  6  2  0
  9 10  1  0
  9 14  1  0
 10 11  1  0
 10 12  1  0
 12 13  1  0
 12 15  1  0
 13 14  1  0
 13 16  1  0
 16 17  1  0
 17 18  1  0
 18 19  2  0
 18 20  1  6
 18 21  1  0
 21 22  1  0
 22 23  2  0
 22 24  1  1
 22 25  1  0
 26 25  1  0
 26 27  1  0
 26 37  1  0
 27 28  1  0
 27 32  1  0
 28 29  1  0
 29 30  2  0
 29 31  1  0
 32 33  1  0
 32 34  1  0
 33 40  1  0
 34 35  1  0
 34 36  1  0
 36 37  1  0
 36 38  1  0
 38 39  1  0
 40 41  1  0
 40 43  1  0
 41 42  2  0
 41 44  1  0
 44 45  1  0
 45 46  1  0
 45 49  1  0
 46 47  2  0
 46 48  1  0
  3 50  1  0
  5 51  1  0
  6 52  1  0
  9 53  1  6
 10 54  1  1
 11 55  1  0
 12 56  1  6
 13 57  1  6
 15 58  1  0
 16 59  1  0
 16 60  1  0
 26 61  1  1
 27 62  1  1
 28 63  1  0
 31 64  1  0
 31 65  1  0
 31 66  1  0
 32 67  1  6
 34 68  1  1
 35 69  1  0
 36 70  1  6
 38 71  1  0
 38 72  1  0
 39 73  1  0
 40 74  1  6
 43 75  1  0
 43 76  1  0
 43 77  1  0
 44 78  1  0
 45 79  1  6
 49 80  1  0
 49 81  1  0
 49 82  1  0
M  CHG  3  20  -1  24  -1  48  -1
M  END
>  <filename_input>  (10) 
8DP2_UMA_docked.sdf

>  <pdb_id>  (10) 
8DP2_UMA

>  <pose_rank>  (10) 
9

>  <num_atoms_heavy>  (10) 
49

>  <num_torsions>  (10) 
15

>  <pose>  (10) 
[62.40553025493452, 0.0021016020597775286, -1.1715628900861037, -5.40381107799409, -1.1939972131888652, 1.1781811081936193, -0.44478898444304155, 0.15657814525297126, -2.9556430788416463, 6.068921235506963, 8.16545621321741, 5.972317119597524, -0.4447417164982097, -1.508457435272444, -12.628640967551343, -8.27577743051339, -13.11899324003321, 5.1548653778438185, -10.346180658984462, 15.665536285339964, 0.11896964891153677]

>  <energy>  (10) 
-750.9296447836671

>  <inter_energy>  (10) 
-754.17838190764

>  <intra_energy>  (10) 
16.483696113979864

>  <rmsd>  (10) 
5.06349

>  <sdf_rank>  (10) 
0

$$$$

     RDKit          3D

 82 84  0  0  0  0  0  0  0  0999 V2000
   66.1007   -3.5424    3.0442 N   0  0  0  0  0  0  0  0  0  0  0  0
   67.2617   -3.1305    3.6688 C   0  0  0  0  0  0  0  0  0  0  0  0
   67.1239   -2.0342    4.4814 N   0  0  0  0  0  0  0  0  0  0  0  0
   65.9664   -1.3287    4.7260 C   0  0  0  0  0  0  0  0  0  0  0  0
   64.8011   -1.8196    4.0424 C   0  0  0  0  0  0  0  0  0  0  0  0
   64.9037   -2.8888    3.2389 C   0  0  0  0  0  0  0  0  0  0  0  0
   68.3266   -3.7224    3.5498 O   0  0  0  0  0  0  0  0  0  0  0  0
   65.9909   -0.3781    5.4956 O   0  0  0  0  0  0  0  0  0  0  0  0
   66.1708   -4.7293    2.2023 C   0  0  1  0  0  0  0  0  0  0  0  0
   64.8159   -5.3709    1.9671 C   0  0  2  0  0  0  0  0  0  0  0  0
   64.4005   -6.1571    3.0844 O   0  0  0  0  0  0  0  0  0  0  0  0
   65.1069   -6.1774    0.6962 C   0  0  1  0  0  0  0  0  0  0  0  0
   66.1548   -5.3203   -0.0266 C   0  0  2  0  0  0  0  0  0  0  0  0
   66.5887   -4.3222    0.9233 O   0  0  0  0  0  0  0  0  0  0  0  0
   65.6579   -7.4471    1.0474 O   0  0  0  0  0  0  0  0  0  0  0  0
   65.6976   -4.6336   -1.2927 C   0  0  0  0  0  0  0  0  0  0  0  0
   64.3245   -4.2092   -1.1013 O   0  0  0  0  0  0  0  0  0  0  0  0
   63.4016   -3.7567   -2.2960 P   0  0  1  0  0  0  0  0  0  0  0  0
   64.2163   -3.1615   -3.3686 O   0  0  0  0  0  0  0  0  0  0  0  0
   62.4436   -4.8659   -2.6749 O   0  0  0  0  0  0  0  0  0  0  0  0
   62.5253   -2.6391   -1.5825 O   0  0  0  0  0  0  0  0  0  0  0  0
   61.6150   -2.5900   -0.2875 P   0  0  2  0  0  0  0  0  0  0  0  0
   61.4685   -1.1708    0.1804 O   0  0  0  0  0  0  0  0  0  0  0  0
   62.0961   -3.5928    0.7242 O   0  0  0  0  0  0  0  0  0  0  0  0
   60.1592   -3.0264   -0.8538 O   0  0  0  0  0  0  0  0  0  0  0  0
   59.1578   -3.3661    0.0700 C   0  0  2  0  0  0  0  0  0  0  0  0
   58.2589   -4.4068   -0.5809 C   0  0  2  0  0  0  0  0  0  0  0  0
   59.0571   -5.5606   -0.9643 N   0  0  0  0  0  0  0  0  0  0  0  0
   59.6250   -6.3962   -0.0879 C   0  0  0  0  0  0  0  0  0  0  0  0
   59.5057   -6.2493    1.1211 O   0  0  0  0  0  0  0  0  0  0  0  0
   60.4352   -7.5155   -0.6728 C   0  0  0  0  0  0  0  0  0  0  0  0
   57.5931   -3.7604   -1.7965 C   0  0  1  0  0  0  0  0  0  0  0  0
   56.6191   -4.6923   -2.2867 O   0  0  0  0  0  0  0  0  0  0  0  0
   56.7786   -2.5807   -1.2914 C   0  0  2  0  0  0  0  0  0  0  0  0
   56.1115   -1.9260   -2.3650 O   0  0  0  0  0  0  0  0  0  0  0  0
   57.6867   -1.5851   -0.5727 C   0  0  2  0  0  0  0  0  0  0  0  0
   58.4078   -2.2396    0.4951 O   0  0  0  0  0  0  0  0  0  0  0  0
   56.9008   -0.4595    0.0705 C   0  0  0  0  0  0  0  0  0  0  0  0
   57.4782    0.8242   -0.2185 O   0  0  0  0  0  0  0  0  0  0  0  0
   55.6059   -5.0991   -1.3501 C   0  0  1  0  0  0  0  0  0  0  0  0
   54.2375   -4.9636   -2.0007 C   0  0  0  0  0  0  0  0  0  0  0  0
   53.2304   -5.3261   -1.3972 O   0  0  0  0  0  0  0  0  0  0  0  0
   55.8746   -6.5405   -0.9808 C   0  0  0  0  0  0  0  0  0  0  0  0
   54.2088   -4.4204   -3.2248 N   0  0  0  0  0  0  0  0  0  0  0  0
   52.9813   -4.2928   -3.9965 C   0  0  2  0  0  0  0  0  0  0  0  0
   52.6387   -5.5887   -4.7132 C   0  0  0  0  0  0  0  0  0  0  0  0
   52.0327   -6.5111   -4.1922 O   0  0  0  0  0  0  0  0  0  0  0  0
   53.1219   -5.6156   -5.9370 O   0  0  0  0  0  0  0  0  0  0  0  0
   53.1258   -3.1980   -5.0487 C   0  0  0  0  0  0  0  0  0  0  0  0
   67.9748   -1.7039    4.9586 H   0  0  0  0  0  0  0  0  0  0  0  0
   63.8300   -1.3209    4.1775 H   0  0  0  0  0  0  0  0  0  0  0  0
   64.0054   -3.2546    2.7201 H   0  0  0  0  0  0  0  0  0  0  0  0
   66.8411   -5.4390    2.7093 H   0  0  0  0  0  0  0  0  0  0  0  0
   63.9725   -4.6743    1.8515 H   0  0  0  0  0  0  0  0  0  0  0  0
   64.6457   -5.6931    3.9238 H   0  0  0  0  0  0  0  0  0  0  0  0
   64.2151   -6.3757    0.0835 H   0  0  0  0  0  0  0  0  0  0  0  0
   66.9498   -6.0016   -0.3640 H   0  0  0  0  0  0  0  0  0  0  0  0
   65.6939   -7.5300    2.0332 H   0  0  0  0  0  0  0  0  0  0  0  0
   66.3340   -3.7593   -1.4939 H   0  0  0  0  0  0  0  0  0  0  0  0
   65.7693   -5.3217   -2.1479 H   0  0  0  0  0  0  0  0  0  0  0  0
   59.6272   -3.7728    0.9779 H   0  0  0  0  0  0  0  0  0  0  0  0
   57.4811   -4.7528    0.1157 H   0  0  0  0  0  0  0  0  0  0  0  0
   59.1928   -5.7449   -1.9686 H   0  0  0  0  0  0  0  0  0  0  0  0
   60.8703   -8.1165    0.1393 H   0  0  0  0  0  0  0  0  0  0  0  0
   59.7871   -8.1519   -1.2933 H   0  0  0  0  0  0  0  0  0  0  0  0
   61.2422   -7.0986   -1.2933 H   0  0  0  0  0  0  0  0  0  0  0  0
   58.3416   -3.4760   -2.5507 H   0  0  0  0  0  0  0  0  0  0  0  0
   56.0238   -2.9635   -0.5888 H   0  0  0  0  0  0  0  0  0  0  0  0
   55.4545   -1.2811   -2.0010 H   0  0  0  0  0  0  0  0  0  0  0  0
   58.3662   -1.1841   -1.3391 H   0  0  0  0  0  0  0  0  0  0  0  0
   55.8696   -0.4808   -0.3117 H   0  0  0  0  0  0  0  0  0  0  0  0
   56.9203   -0.6067    1.1605 H   0  0  0  0  0  0  0  0  0  0  0  0
   57.6879    1.2902    0.6294 H   0  0  0  0  0  0  0  0  0  0  0  0
   55.6248   -4.4704   -0.4477 H   0  0  0  0  0  0  0  0  0  0  0  0
   55.8933   -6.6410    0.1144 H   0  0  0  0  0  0  0  0  0  0  0  0
   55.0800   -7.1791   -1.3941 H   0  0  0  0  0  0  0  0  0  0  0  0
   56.8459   -6.8499   -1.3941 H   0  0  0  0  0  0  0  0  0  0  0  0
   55.0896   -4.0796   -3.6359 H   0  0  0  0  0  0  0  0  0  0  0  0
   52.1794   -4.0425   -3.2864 H   0  0  0  0  0  0  0  0  0  0  0  0
   53.2542   -2.2255   -4.5508 H   0  0  0  0  0  0  0  0  0  0  0  0
   54.0042   -3.4069   -5.6770 H   0  0  0  0  0  0  0  0  0  0  0  0
   52.2234   -3.1719   -5.6770 H   0  0  0  0  0  0  0  0  0  0  0  0
  1  2  1  0
  1  6  1  0
  9  1  1  0
  2  3  1  0
  2  7  2  0
  3  4  1  0
  4  5  1  0
  4  8  2  0
  5  6  2  0
  9 10  1  0
  9 14  1  0
 10 11  1  0
 10 12  1  0
 12 13  1  0
 12 15  1  0
 13 14  1  0
 13 16  1  0
 16 17  1  0
 17 18  1  0
 18 19  2  0
 18 20  1  6
 18 21  1  0
 21 22  1  0
 22 23  2  0
 22 24  1  1
 22 25  1  0
 26 25  1  0
 26 27  1  0
 26 37  1  0
 27 28  1  0
 27 32  1  0
 28 29  1  0
 29 30  2  0
 29 31  1  0
 32 33  1  0
 32 34  1  0
 33 40  1  0
 34 35  1  0
 34 36  1  0
 36 37  1  0
 36 38  1  0
 38 39  1  0
 40 41  1  0
 40 43  1  0
 41 42  2  0
 41 44  1  0
 44 45  1  0
 45 46  1  0
 45 49  1  0
 46 47  2  0
 46 48  1  0
  3 50  1  0
  5 51  1  0
  6 52  1  0
  9 53  1  1
 10 54  1  6
 11 55  1  0
 12 56  1  6
 13 57  1  6
 15 58  1  0
 16 59  1  0
 16 60  1  0
 26 61  1  1
 27 62  1  1
 28 63  1  0
 31 64  1  0
 31 65  1  0
 31 66  1  0
 32 67  1  6
 34 68  1  1
 35 69  1  0
 36 70  1  6
 38 71  1  0
 38 72  1  0
 39 73  1  0
 40 74  1  1
 43 75  1  0
 43 76  1  0
 43 77  1  0
 44 78  1  0
 45 79  1  1
 49 80  1  0
 49 81  1  0
 49 82  1  0
M  CHG  3  20  -1  24  -1  48  -1
M  END
>  <filename_input>  (11) 
8DP2_UMA_docked.sdf

>  <pdb_id>  (11) 
8DP2_UMA

>  <pose_rank>  (11) 
10

>  <num_atoms_heavy>  (11) 
49

>  <num_torsions>  (11) 
15

>  <pose>  (11) 
[60.15920989013054, -3.026368386072492, -0.853757850045486, 0.38596264057410856, 4.461362381149371, 4.463887567440953, -25.361100526065428, 18.13459096189725, -3.4334449509518863, 84.60825800467353, 106.87676527946125, 5.851293076115349, 6.46570598203671, 1.6899510963356197, -10.978102328357782, 13.244266539727898, 52.333120563386274, 2.867754611759347, 76.45024222073623, 100.34072711689402, -11.714533984425843]

>  <energy>  (11) 
-657.0471787105363

>  <inter_energy>  (11) 
-699.781406684461

>  <intra_energy>  (11) 
44.39435209926076

>  <rmsd>  (11) 
4.11739

>  <sdf_rank>  (11) 
0

$$$$

     RDKit          3D

 82 84  0  0  0  0  0  0  0  0999 V2000
   56.5547    1.6748   -3.1579 N   0  0  0  0  0  0  0  0  0  0  0  0
   57.4406    2.4645   -3.8645 C   0  0  0  0  0  0  0  0  0  0  0  0
   57.4991    2.2064   -5.2104 N   0  0  0  0  0  0  0  0  0  0  0  0
   56.7743    1.2607   -5.9014 C   0  0  0  0  0  0  0  0  0  0  0  0
   55.8728    0.4811   -5.0978 C   0  0  0  0  0  0  0  0  0  0  0  0
   55.7941    0.7081   -3.7781 C   0  0  0  0  0  0  0  0  0  0  0  0
   58.0919    3.3614   -3.3451 O   0  0  0  0  0  0  0  0  0  0  0  0
   56.9172    1.1575   -7.1120 O   0  0  0  0  0  0  0  0  0  0  0  0
   56.4125    1.9298   -1.7305 C   0  0  1  0  0  0  0  0  0  0  0  0
   54.9760    2.1846   -1.3134 C   0  0  2  0  0  0  0  0  0  0  0  0
   54.5640    3.5175   -1.6181 O   0  0  0  0  0  0  0  0  0  0  0  0
   55.0621    1.8736    0.1853 C   0  0  1  0  0  0  0  0  0  0  0  0
   56.1410    0.7843    0.2524 C   0  0  2  0  0  0  0  0  0  0  0  0
   56.7683    0.7530   -1.0485 O   0  0  0  0  0  0  0  0  0  0  0  0
   55.4850    3.0381    0.8952 O   0  0  0  0  0  0  0  0  0  0  0  0
   55.6654   -0.6056    0.6065 C   0  0  0  0  0  0  0  0  0  0  0  0
   56.7855   -1.5140    0.4568 O   0  0  0  0  0  0  0  0  0  0  0  0
   56.6115   -3.0803    0.4387 P   0  0  1  0  0  0  0  0  0  0  0  0
   57.6759   -3.7177    1.2320 O   0  0  0  0  0  0  0  0  0  0  0  0
   55.1796   -3.4579    0.7528 O   0  0  0  0  0  0  0  0  0  0  0  0
   56.8196   -3.3806   -1.1080 O   0  0  0  0  0  0  0  0  0  0  0  0
   58.0040   -3.1699   -2.1381 P   0  0  2  0  0  0  0  0  0  0  0  0
   58.0036   -1.7526   -2.6341 O   0  0  0  0  0  0  0  0  0  0  0  0
   57.9860   -4.2542   -3.1794 O   0  0  0  0  0  0  0  0  0  0  0  0
   59.3228   -3.3166   -1.2056 O   0  0  0  0  0  0  0  0  0  0  0  0
   60.4846   -3.8637   -1.7733 C   0  0  2  0  0  0  0  0  0  0  0  0
   61.3063   -4.4774   -0.6496 C   0  0  2  0  0  0  0  0  0  0  0  0
   60.5106   -5.4849    0.0341 N   0  0  0  0  0  0  0  0  0  0  0  0
   60.6670   -6.8014   -0.1422 C   0  0  0  0  0  0  0  0  0  0  0  0
   61.5107   -7.2598   -0.9009 O   0  0  0  0  0  0  0  0  0  0  0  0
   59.7335   -7.6863    0.6305 C   0  0  0  0  0  0  0  0  0  0  0  0
   61.7188   -3.3529    0.3012 C   0  0  1  0  0  0  0  0  0  0  0  0
   62.6369   -3.9184    1.2470 O   0  0  0  0  0  0  0  0  0  0  0  0
   62.5504   -2.3654   -0.5011 C   0  0  2  0  0  0  0  0  0  0  0  0
   62.9884   -1.2862    0.3172 O   0  0  0  0  0  0  0  0  0  0  0  0
   61.7337   -1.8195   -1.6704 C   0  0  2  0  0  0  0  0  0  0  0  0
   61.2415   -2.9024   -2.4912 O   0  0  0  0  0  0  0  0  0  0  0  0
   62.5637   -0.9367   -2.5815 C   0  0  0  0  0  0  0  0  0  0  0  0
   62.0867    0.4187   -2.5866 O   0  0  0  0  0  0  0  0  0  0  0  0
   63.7674   -4.6139    0.6925 C   0  0  1  0  0  0  0  0  0  0  0  0
   65.0496   -3.9493    1.1706 C   0  0  0  0  0  0  0  0  0  0  0  0
   65.9904   -3.7973    0.3949 O   0  0  0  0  0  0  0  0  0  0  0  0
   63.7049   -6.0466    1.1718 C   0  0  0  0  0  0  0  0  0  0  0  0
   65.0699   -3.5371    2.4450 N   0  0  0  0  0  0  0  0  0  0  0  0
   66.2512   -2.9492    3.0593 C   0  0  2  0  0  0  0  0  0  0  0  0
   67.1723   -4.0173    3.6260 C   0  0  0  0  0  0  0  0  0  0  0  0
   67.1157   -4.4196    4.7767 O   0  0  0  0  0  0  0  0  0  0  0  0
   68.0680   -4.4107    2.7456 O   0  0  0  0  0  0  0  0  0  0  0  0
   65.8506   -2.0203    4.2009 C   0  0  0  0  0  0  0  0  0  0  0  0
   58.1534    2.7797   -5.7619 H   0  0  0  0  0  0  0  0  0  0  0  0
   55.2507   -0.2978   -5.5628 H   0  0  0  0  0  0  0  0  0  0  0  0
   55.1016    0.1044   -3.1731 H   0  0  0  0  0  0  0  0  0  0  0  0
   57.0332    2.8086   -1.5016 H   0  0  0  0  0  0  0  0  0  0  0  0
   54.2150    1.5853   -1.8347 H   0  0  0  0  0  0  0  0  0  0  0  0
   54.4100    4.0158   -0.7766 H   0  0  0  0  0  0  0  0  0  0  0  0
   54.1052    1.5604    0.6284 H   0  0  0  0  0  0  0  0  0  0  0  0
   56.8183    1.0532    1.0764 H   0  0  0  0  0  0  0  0  0  0  0  0
   55.4243    2.8711    1.8691 H   0  0  0  0  0  0  0  0  0  0  0  0
   55.3064   -0.6238    1.6462 H   0  0  0  0  0  0  0  0  0  0  0  0
   54.8385   -0.9064   -0.0536 H   0  0  0  0  0  0  0  0  0  0  0  0
   60.2003   -4.6305   -2.5090 H   0  0  0  0  0  0  0  0  0  0  0  0
   62.2091   -4.9702   -1.0396 H   0  0  0  0  0  0  0  0  0  0  0  0
   59.7849   -5.1661    0.6919 H   0  0  0  0  0  0  0  0  0  0  0  0
   59.8930   -7.5351    1.7084 H   0  0  0  0  0  0  0  0  0  0  0  0
   58.6937   -7.4343    0.3748 H   0  0  0  0  0  0  0  0  0  0  0  0
   59.9294   -8.7380    0.3748 H   0  0  0  0  0  0  0  0  0  0  0  0
   60.8378   -2.8921    0.7718 H   0  0  0  0  0  0  0  0  0  0  0  0
   63.4334   -2.8968   -0.8856 H   0  0  0  0  0  0  0  0  0  0  0  0
   62.8881   -1.5332    1.2707 H   0  0  0  0  0  0  0  0  0  0  0  0
   60.9128   -1.2391   -1.2241 H   0  0  0  0  0  0  0  0  0  0  0  0
   63.6071   -0.9463   -2.2335 H   0  0  0  0  0  0  0  0  0  0  0  0
   62.4862   -1.3315   -3.6054 H   0  0  0  0  0  0  0  0  0  0  0  0
   61.9761    0.7330   -1.6544 H   0  0  0  0  0  0  0  0  0  0  0  0
   63.7506   -4.5847   -0.4070 H   0  0  0  0  0  0  0  0  0  0  0  0
   63.7041   -6.0655    2.2716 H   0  0  0  0  0  0  0  0  0  0  0  0
   62.7853   -6.5190    0.7962 H   0  0  0  0  0  0  0  0  0  0  0  0
   64.5799   -6.5974    0.7962 H   0  0  0  0  0  0  0  0  0  0  0  0
   64.2164   -3.6403    3.0122 H   0  0  0  0  0  0  0  0  0  0  0  0
   66.7780   -2.3893    2.2725 H   0  0  0  0  0  0  0  0  0  0  0  0
   66.0616   -2.5097    5.1631 H   0  0  0  0  0  0  0  0  0  0  0  0
   66.4254   -1.0850    4.1314 H   0  0  0  0  0  0  0  0  0  0  0  0
   64.7759   -1.7962    4.1314 H   0  0  0  0  0  0  0  0  0  0  0  0
  1  2  1  0
  1  6  1  0
  9  1  1  0
  2  3  1  0
  2  7  2  0
  3  4  1  0
  4  5  1  0
  4  8  2  0
  5  6  2  0
  9 10  1  0
  9 14  1  0
 10 11  1  0
 10 12  1  0
 12 13  1  0
 12 15  1  0
 13 14  1  0
 13 16  1  0
 16 17  1  0
 17 18  1  0
 18 19  2  0
 18 20  1  1
 18 21  1  0
 21 22  1  0
 22 23  2  0
 22 24  1  6
 22 25  1  0
 26 25  1  0
 26 27  1  0
 26 37  1  0
 27 28  1  0
 27 32  1  0
 28 29  1  0
 29 30  2  0
 29 31  1  0
 32 33  1  0
 32 34  1  0
 33 40  1  0
 34 35  1  0
 34 36  1  0
 36 37  1  0
 36 38  1  0
 38 39  1  0
 40 41  1  0
 40 43  1  0
 41 42  2  0
 41 44  1  0
 44 45  1  0
 45 46  1  0
 45 49  1  0
 46 47  2  0
 46 48  1  0
  3 50  1  0
  5 51  1  0
  6 52  1  0
  9 53  1  1
 10 54  1  6
 11 55  1  0
 12 56  1  1
 13 57  1  1
 15 58  1  0
 16 59  1  0
 16 60  1  0
 26 61  1  6
 27 62  1  6
 28 63  1  0
 31 64  1  0
 31 65  1  0
 31 66  1  0
 32 67  1  1
 34 68  1  6
 35 69  1  0
 36 70  1  1
 38 71  1  0
 38 72  1  0
 39 73  1  0
 40 74  1  6
 43 75  1  0
 43 76  1  0
 43 77  1  0
 44 78  1  0
 45 79  1  6
 49 80  1  0
 49 81  1  0
 49 82  1  0
M  CHG  3  20  -1  24  -1  48  -1
M  END
>  <filename_input>  (12) 
8DP2_UMA_docked.sdf

>  <pdb_id>  (12) 
8DP2_UMA

>  <pose_rank>  (12) 
11

>  <num_atoms_heavy>  (12) 
49

>  <num_torsions>  (12) 
15

>  <pose>  (12) 
[59.32275837843917, -3.316553746449136, -1.205558550516298, 2.67436705507643e-05, -3.2679363082251145, 0.5316752653737987, 18.52896466789961, -0.10892812829094375, -3.13730319254967, 9.135453958411608, -12.684806016970382, 0.34395131796364725, 0.10852162906476996, -1.384050209601473, 7.538104160892563, -3.5066900780459673, -2.2000840061514166, 0.9762587400864442, 1.034263065018094, 2.183944098872976, 0.24816723719774925]

>  <energy>  (12) 
-674.2185144640863

>  <inter_energy>  (12) 
-707.5124429904757

>  <intra_energy>  (12) 
33.536757459126534

>  <rmsd>  (12) 
10.0804

>  <sdf_rank>  (12) 
0

$$$$

     RDKit          3D

 82 84  0  0  0  0  0  0  0  0999 V2000
   56.4263    2.1716   -2.3728 N   0  0  0  0  0  0  0  0  0  0  0  0
   56.2596    3.4379   -2.8986 C   0  0  0  0  0  0  0  0  0  0  0  0
   56.4657    3.5344   -4.2512 N   0  0  0  0  0  0  0  0  0  0  0  0
   56.8113    2.5130   -5.1081 C   0  0  0  0  0  0  0  0  0  0  0  0
   56.9638    1.2257   -4.4870 C   0  0  0  0  0  0  0  0  0  0  0  0
   56.7710    1.0990   -3.1655 C   0  0  0  0  0  0  0  0  0  0  0  0
   55.9073    4.3968   -2.2241 O   0  0  0  0  0  0  0  0  0  0  0  0
   56.9420    2.7456   -6.3020 O   0  0  0  0  0  0  0  0  0  0  0  0
   56.1777    1.9933   -0.9483 C   0  0  1  0  0  0  0  0  0  0  0  0
   54.8857    1.2516   -0.6598 C   0  0  2  0  0  0  0  0  0  0  0  0
   53.7469    2.1051   -0.7774 O   0  0  0  0  0  0  0  0  0  0  0  0
   55.1623    0.7546    0.7638 C   0  0  1  0  0  0  0  0  0  0  0  0
   56.6812    0.5358    0.7662 C   0  0  2  0  0  0  0  0  0  0  0  0
   57.1822    1.1507   -0.4412 O   0  0  0  0  0  0  0  0  0  0  0  0
   54.8032    1.7662    1.7053 O   0  0  0  0  0  0  0  0  0  0  0  0
   57.1489   -0.9001    0.8217 C   0  0  0  0  0  0  0  0  0  0  0  0
   56.1497   -1.7222    0.1674 O   0  0  0  0  0  0  0  0  0  0  0  0
   56.5078   -2.7400   -0.9814 P   0  0  1  0  0  0  0  0  0  0  0  0
   56.5863   -4.1075   -0.4408 O   0  0  0  0  0  0  0  0  0  0  0  0
   55.6215   -2.5112   -2.1870 O   0  0  0  0  0  0  0  0  0  0  0  0
   57.9541   -2.2234   -1.3905 O   0  0  0  0  0  0  0  0  0  0  0  0
   58.9745   -2.5623   -2.5533 P   0  0  2  0  0  0  0  0  0  0  0  0
   58.3620   -2.2301   -3.8834 O   0  0  0  0  0  0  0  0  0  0  0  0
   59.5132   -3.9555   -2.3822 O   0  0  0  0  0  0  0  0  0  0  0  0
   60.1571   -1.4767   -2.3223 O   0  0  0  0  0  0  0  0  0  0  0  0
   61.4844   -1.8781   -2.5430 C   0  0  2  0  0  0  0  0  0  0  0  0
   62.2043   -1.8600   -1.2029 C   0  0  2  0  0  0  0  0  0  0  0  0
   61.5174   -2.7448   -0.2751 N   0  0  0  0  0  0  0  0  0  0  0  0
   61.8863   -4.0091   -0.0422 C   0  0  0  0  0  0  0  0  0  0  0  0
   62.8497   -4.5181   -0.5992 O   0  0  0  0  0  0  0  0  0  0  0  0
   61.0376   -4.7760    0.9289 C   0  0  0  0  0  0  0  0  0  0  0  0
   62.2159   -0.4181   -0.6935 C   0  0  1  0  0  0  0  0  0  0  0  0
   63.0501   -0.3917    0.4731 O   0  0  0  0  0  0  0  0  0  0  0  0
   62.9619    0.4178   -1.7206 C   0  0  2  0  0  0  0  0  0  0  0  0
   63.0300    1.7806   -1.3150 O   0  0  0  0  0  0  0  0  0  0  0  0
   62.2681    0.3240   -3.0778 C   0  0  2  0  0  0  0  0  0  0  0  0
   62.1489   -1.0563   -3.4892 O   0  0  0  0  0  0  0  0  0  0  0  0
   63.0521    1.0280   -4.1678 C   0  0  0  0  0  0  0  0  0  0  0  0
   64.4461    0.6818   -4.1276 O   0  0  0  0  0  0  0  0  0  0  0  0
   62.3695   -0.2680    1.7344 C   0  0  1  0  0  0  0  0  0  0  0  0
   63.3966   -0.1181    2.8464 C   0  0  0  0  0  0  0  0  0  0  0  0
   63.4704    0.9329    3.4786 O   0  0  0  0  0  0  0  0  0  0  0  0
   61.4875    0.9579    1.6615 C   0  0  0  0  0  0  0  0  0  0  0  0
   64.1712   -1.1830    3.0921 N   0  0  0  0  0  0  0  0  0  0  0  0
   65.2425   -1.1618    4.0772 C   0  0  2  0  0  0  0  0  0  0  0  0
   65.8823   -2.5319    4.2316 C   0  0  0  0  0  0  0  0  0  0  0  0
   66.8854   -2.7403    4.8947 O   0  0  0  0  0  0  0  0  0  0  0  0
   65.2585   -3.4479    3.5217 O   0  0  0  0  0  0  0  0  0  0  0  0
   64.7038   -0.7384    5.4400 C   0  0  0  0  0  0  0  0  0  0  0  0
   56.3499    4.4683   -4.6699 H   0  0  0  0  0  0  0  0  0  0  0  0
   57.2372    0.3488   -5.0922 H   0  0  0  0  0  0  0  0  0  0  0  0
   56.8917    0.1092   -2.7011 H   0  0  0  0  0  0  0  0  0  0  0  0
   56.1425    2.9989   -0.5039 H   0  0  0  0  0  0  0  0  0  0  0  0
   54.6360    0.4397   -1.3587 H   0  0  0  0  0  0  0  0  0  0  0  0
   53.4222    2.3485    0.1256 H   0  0  0  0  0  0  0  0  0  0  0  0
   54.5963   -0.1487    1.0354 H   0  0  0  0  0  0  0  0  0  0  0  0
   57.0683    0.9792    1.6954 H   0  0  0  0  0  0  0  0  0  0  0  0
   54.9261    1.4200    2.6247 H   0  0  0  0  0  0  0  0  0  0  0  0
   58.1129   -0.9991    0.3012 H   0  0  0  0  0  0  0  0  0  0  0  0
   57.2818   -1.2187    1.8661 H   0  0  0  0  0  0  0  0  0  0  0  0
   61.4887   -2.8911   -2.9717 H   0  0  0  0  0  0  0  0  0  0  0  0
   63.2402   -2.2164   -1.3024 H   0  0  0  0  0  0  0  0  0  0  0  0
   60.6998   -2.3766    0.2316 H   0  0  0  0  0  0  0  0  0  0  0  0
   61.3282   -4.5134    1.9568 H   0  0  0  0  0  0  0  0  0  0  0  0
   59.9790   -4.5220    0.7709 H   0  0  0  0  0  0  0  0  0  0  0  0
   61.1833   -5.8548    0.7709 H   0  0  0  0  0  0  0  0  0  0  0  0
   61.1934   -0.0586   -0.5056 H   0  0  0  0  0  0  0  0  0  0  0  0
   63.9854    0.0233   -1.8027 H   0  0  0  0  0  0  0  0  0  0  0  0
   63.0325    1.8309   -0.3263 H   0  0  0  0  0  0  0  0  0  0  0  0
   61.2842    0.7991   -2.9505 H   0  0  0  0  0  0  0  0  0  0  0  0
   62.6410    0.7387   -5.1462 H   0  0  0  0  0  0  0  0  0  0  0  0
   62.9633    2.1127   -4.0082 H   0  0  0  0  0  0  0  0  0  0  0  0
   64.7409    0.6086   -3.1853 H   0  0  0  0  0  0  0  0  0  0  0  0
   61.7585   -1.1584    1.9441 H   0  0  0  0  0  0  0  0  0  0  0  0
   61.2444    1.2957    2.6797 H   0  0  0  0  0  0  0  0  0  0  0  0
   62.0173    1.7594    1.1259 H   0  0  0  0  0  0  0  0  0  0  0  0
   60.5591    0.7103    1.1259 H   0  0  0  0  0  0  0  0  0  0  0  0
   64.0021   -2.0507    2.5634 H   0  0  0  0  0  0  0  0  0  0  0  0
   65.9946   -0.4433    3.7191 H   0  0  0  0  0  0  0  0  0  0  0  0
   65.3028   -1.2092    6.2334 H   0  0  0  0  0  0  0  0  0  0  0  0
   64.7648    0.3558    5.5347 H   0  0  0  0  0  0  0  0  0  0  0  0
   63.6551   -1.0567    5.5347 H   0  0  0  0  0  0  0  0  0  0  0  0
  1  2  1  0
  1  6  1  0
  9  1  1  0
  2  3  1  0
  2  7  2  0
  3  4  1  0
  4  5  1  0
  4  8  2  0
  5  6  2  0
  9 10  1  0
  9 14  1  0
 10 11  1  0
 10 12  1  0
 12 13  1  0
 12 15  1  0
 13 14  1  0
 13 16  1  0
 16 17  1  0
 17 18  1  0
 18 19  2  0
 18 20  1  6
 18 21  1  0
 21 22  1  0
 22 23  2  0
 22 24  1  6
 22 25  1  0
 26 25  1  0
 26 27  1  0
 26 37  1  0
 27 28  1  0
 27 32  1  0
 28 29  1  0
 29 30  2  0
 29 31  1  0
 32 33  1  0
 32 34  1  0
 33 40  1  0
 34 35  1  0
 34 36  1  0
 36 37  1  0
 36 38  1  0
 38 39  1  0
 40 41  1  0
 40 43  1  0
 41 42  2  0
 41 44  1  0
 44 45  1  0
 45 46  1  0
 45 49  1  0
 46 47  2  0
 46 48  1  0
  3 50  1  0
  5 51  1  0
  6 52  1  0
  9 53  1  1
 10 54  1  6
 11 55  1  0
 12 56  1  1
 13 57  1  1
 15 58  1  0
 16 59  1  0
 16 60  1  0
 26 61  1  6
 27 62  1  6
 28 63  1  0
 31 64  1  0
 31 65  1  0
 31 66  1  0
 32 67  1  1
 34 68  1  6
 35 69  1  0
 36 70  1  1
 38 71  1  0
 38 72  1  0
 39 73  1  0
 40 74  1  1
 43 75  1  0
 43 76  1  0
 43 77  1  0
 44 78  1  0
 45 79  1  6
 49 80  1  0
 49 81  1  0
 49 82  1  0
M  CHG  3  20  -1  24  -1  48  -1
M  END
>  <filename_input>  (13) 
8DP2_UMA_docked.sdf

>  <pdb_id>  (13) 
8DP2_UMA

>  <pose_rank>  (13) 
12

>  <num_atoms_heavy>  (13) 
49

>  <num_torsions>  (13) 
15

>  <pose>  (13) 
[60.15710644601613, -1.4767203970133935, -2.322312319259443, 0.7985858295530981, -2.488877802378219, 1.8958954484583468, 0.39347755363901044, -0.22568796539596558, -0.2947907821731877, 0.06484841517580733, 1.0175492352578717, -1.5191175094045446, -1.6060738589011678, -3.056688106381644, 1.1647662378504275, -0.9976390747598424, 0.015814260425052407, -1.1499074132928, -0.1100422941327111, -0.31048611705752305, -0.0727359503028421]

>  <energy>  (13) 
-696.7198444763898

>  <inter_energy>  (13) 
-726.5920003350261

>  <intra_energy>  (13) 
38.09132807380418

>  <rmsd>  (13) 
9.80311

>  <sdf_rank>  (13) 
0

$$$$

     RDKit          3D

 82 84  0  0  0  0  0  0  0  0999 V2000
   64.7518   -1.5528    3.2853 N   0  0  0  0  0  0  0  0  0  0  0  0
   63.9996   -0.6803    4.0473 C   0  0  0  0  0  0  0  0  0  0  0  0
   64.6321   -0.1935    5.1628 N   0  0  0  0  0  0  0  0  0  0  0  0
   65.9124   -0.4851    5.5787 C   0  0  0  0  0  0  0  0  0  0  0  0
   66.6318   -1.3977    4.7326 C   0  0  0  0  0  0  0  0  0  0  0  0
   66.0400   -1.8930    3.6354 C   0  0  0  0  0  0  0  0  0  0  0  0
   62.8712   -0.3255    3.7322 O   0  0  0  0  0  0  0  0  0  0  0  0
   66.3531    0.0439    6.5899 O   0  0  0  0  0  0  0  0  0  0  0  0
   64.1529   -2.0706    2.0622 C   0  0  1  0  0  0  0  0  0  0  0  0
   65.1801   -2.4327    1.0056 C   0  0  2  0  0  0  0  0  0  0  0  0
   65.6577   -1.2787    0.3132 O   0  0  0  0  0  0  0  0  0  0  0  0
   64.3615   -3.3984    0.1411 C   0  0  1  0  0  0  0  0  0  0  0  0
   63.4205   -4.0608    1.1564 C   0  0  2  0  0  0  0  0  0  0  0  0
   63.5311   -3.2921    2.3746 O   0  0  0  0  0  0  0  0  0  0  0  0
   63.6122   -2.6619   -0.8259 O   0  0  0  0  0  0  0  0  0  0  0  0
   63.6871   -5.5163    1.4632 C   0  0  0  0  0  0  0  0  0  0  0  0
   62.5101   -6.2758    1.0889 O   0  0  0  0  0  0  0  0  0  0  0  0
   62.1672   -6.6265   -0.4088 P   0  0  1  0  0  0  0  0  0  0  0  0
   63.2997   -6.2778   -1.2831 O   0  0  0  0  0  0  0  0  0  0  0  0
   61.6080   -8.0296   -0.5096 O   0  0  0  0  0  0  0  0  0  0  0  0
   60.9457   -5.6433   -0.6679 O   0  0  0  0  0  0  0  0  0  0  0  0
   59.4111   -5.6397   -0.2762 P   0  0  2  0  0  0  0  0  0  0  0  0
   59.2601   -5.3817    1.1953 O   0  0  0  0  0  0  0  0  0  0  0  0
   58.7320   -6.8638   -0.8247 O   0  0  0  0  0  0  0  0  0  0  0  0
   58.8521   -4.3125   -1.0222 O   0  0  0  0  0  0  0  0  0  0  0  0
   58.0927   -3.3970   -0.2761 C   0  0  2  0  0  0  0  0  0  0  0  0
   57.0834   -2.7554   -1.2163 C   0  0  2  0  0  0  0  0  0  0  0  0
   56.2531   -3.7909   -1.8112 N   0  0  0  0  0  0  0  0  0  0  0  0
   55.2529   -4.4027   -1.1678 C   0  0  0  0  0  0  0  0  0  0  0  0
   54.9562   -4.1248   -0.0136 O   0  0  0  0  0  0  0  0  0  0  0  0
   54.5258   -5.4661   -1.9374 C   0  0  0  0  0  0  0  0  0  0  0  0
   57.8587   -1.9810   -2.2830 C   0  0  1  0  0  0  0  0  0  0  0  0
   56.8967   -1.2402   -3.0465 O   0  0  0  0  0  0  0  0  0  0  0  0
   58.6798   -0.9222   -1.5651 C   0  0  2  0  0  0  0  0  0  0  0  0
   59.4275   -0.1429   -2.4924 O   0  0  0  0  0  0  0  0  0  0  0  0
   59.6316   -1.5817   -0.5695 C   0  0  2  0  0  0  0  0  0  0  0  0
   58.8967   -2.4138    0.3558 O   0  0  0  0  0  0  0  0  0  0  0  0
   60.3730   -0.5609    0.2711 C   0  0  0  0  0  0  0  0  0  0  0  0
   61.5611   -0.0926   -0.3877 O   0  0  0  0  0  0  0  0  0  0  0  0
   55.6127   -1.0457   -2.4276 C   0  0  1  0  0  0  0  0  0  0  0  0
   55.4969    0.3954   -1.9542 C   0  0  0  0  0  0  0  0  0  0  0  0
   54.9733    0.6474   -0.8715 O   0  0  0  0  0  0  0  0  0  0  0  0
   54.5536   -1.3478   -3.4635 C   0  0  0  0  0  0  0  0  0  0  0  0
   56.0080    1.3331   -2.7628 N   0  0  0  0  0  0  0  0  0  0  0  0
   55.9071    2.7561   -2.4739 C   0  0  2  0  0  0  0  0  0  0  0  0
   56.1895    3.0467   -1.0089 C   0  0  0  0  0  0  0  0  0  0  0  0
   55.3726    3.5361   -0.2457 O   0  0  0  0  0  0  0  0  0  0  0  0
   57.4317    2.7601   -0.6820 O   0  0  0  0  0  0  0  0  0  0  0  0
   54.5051    3.2655   -2.7922 C   0  0  0  0  0  0  0  0  0  0  0  0
   64.0933    0.4583    5.7509 H   0  0  0  0  0  0  0  0  0  0  0  0
   67.6625   -1.6885    4.9837 H   0  0  0  0  0  0  0  0  0  0  0  0
   66.6000   -2.5916    2.9963 H   0  0  0  0  0  0  0  0  0  0  0  0
   63.4806   -1.2875    1.6817 H   0  0  0  0  0  0  0  0  0  0  0  0
   66.1139   -2.8766    1.3812 H   0  0  0  0  0  0  0  0  0  0  0  0
   65.9411   -0.5938    0.9694 H   0  0  0  0  0  0  0  0  0  0  0  0
   64.9742   -4.1229   -0.4153 H   0  0  0  0  0  0  0  0  0  0  0  0
   62.4152   -4.0614    0.7100 H   0  0  0  0  0  0  0  0  0  0  0  0
   62.9882   -2.0486   -0.3626 H   0  0  0  0  0  0  0  0  0  0  0  0
   64.5561   -5.8662    0.8867 H   0  0  0  0  0  0  0  0  0  0  0  0
   63.9025   -5.6480    2.5338 H   0  0  0  0  0  0  0  0  0  0  0  0
   57.5797   -3.9315    0.5370 H   0  0  0  0  0  0  0  0  0  0  0  0
   56.4210   -2.0624   -0.6768 H   0  0  0  0  0  0  0  0  0  0  0  0
   56.4467   -4.0691   -2.7838 H   0  0  0  0  0  0  0  0  0  0  0  0
   54.0480   -6.1650   -1.2352 H   0  0  0  0  0  0  0  0  0  0  0  0
   53.7569   -4.9994   -2.5706 H   0  0  0  0  0  0  0  0  0  0  0  0
   55.2397   -6.0133   -2.5706 H   0  0  0  0  0  0  0  0  0  0  0  0
   58.4710   -2.6595   -2.8951 H   0  0  0  0  0  0  0  0  0  0  0  0
   57.9859   -0.2597   -1.0271 H   0  0  0  0  0  0  0  0  0  0  0  0
   60.0218    0.4765   -1.9992 H   0  0  0  0  0  0  0  0  0  0  0  0
   60.3429   -2.1677   -1.1701 H   0  0  0  0  0  0  0  0  0  0  0  0
   59.7090    0.2955    0.4599 H   0  0  0  0  0  0  0  0  0  0  0  0
   60.6710   -1.0438    1.2134 H   0  0  0  0  0  0  0  0  0  0  0  0
   62.2320    0.1719    0.2906 H   0  0  0  0  0  0  0  0  0  0  0  0
   55.4874   -1.7077   -1.5581 H   0  0  0  0  0  0  0  0  0  0  0  0
   53.6135   -1.6160   -2.9592 H   0  0  0  0  0  0  0  0  0  0  0  0
   54.3920   -0.4599   -4.0924 H   0  0  0  0  0  0  0  0  0  0  0  0
   54.8847   -2.1873   -4.0924 H   0  0  0  0  0  0  0  0  0  0  0  0
   56.4910    1.0356   -3.6225 H   0  0  0  0  0  0  0  0  0  0  0  0
   56.6545    3.2652   -3.1002 H   0  0  0  0  0  0  0  0  0  0  0  0
   53.9646    3.4619   -1.8545 H   0  0  0  0  0  0  0  0  0  0  0  0
   54.5765    4.1952   -3.3759 H   0  0  0  0  0  0  0  0  0  0  0  0
   53.9630    2.5069   -3.3759 H   0  0  0  0  0  0  0  0  0  0  0  0
  1  2  1  0
  1  6  1  0
  9  1  1  0
  2  3  1  0
  2  7  2  0
  3  4  1  0
  4  5  1  0
  4  8  2  0
  5  6  2  0
  9 10  1  0
  9 14  1  0
 10 11  1  0
 10 12  1  0
 12 13  1  0
 12 15  1  0
 13 14  1  0
 13 16  1  0
 16 17  1  0
 17 18  1  0
 18 19  2  0
 18 20  1  1
 18 21  1  0
 21 22  1  0
 22 23  2  0
 22 24  1  6
 22 25  1  0
 26 25  1  0
 26 27  1  0
 26 37  1  0
 27 28  1  0
 27 32  1  0
 28 29  1  0
 29 30  2  0
 29 31  1  0
 32 33  1  0
 32 34  1  0
 33 40  1  0
 34 35  1  0
 34 36  1  0
 36 37  1  0
 36 38  1  0
 38 39  1  0
 40 41  1  0
 40 43  1  0
 41 42  2  0
 41 44  1  0
 44 45  1  0
 45 46  1  0
 45 49  1  0
 46 47  2  0
 46 48  1  0
  3 50  1  0
  5 51  1  0
  6 52  1  0
  9 53  1  6
 10 54  1  1
 11 55  1  0
 12 56  1  6
 13 57  1  6
 15 58  1  0
 16 59  1  0
 16 60  1  0
 26 61  1  1
 27 62  1  1
 28 63  1  0
 31 64  1  0
 31 65  1  0
 31 66  1  0
 32 67  1  6
 34 68  1  1
 35 69  1  0
 36 70  1  6
 38 71  1  0
 38 72  1  0
 39 73  1  0
 40 74  1  1
 43 75  1  0
 43 76  1  0
 43 77  1  0
 44 78  1  0
 45 79  1  6
 49 80  1  0
 49 81  1  0
 49 82  1  0
M  CHG  3  20  -1  24  -1  48  -1
M  END
>  <filename_input>  (14) 
8DP2_UMA_docked.sdf

>  <pdb_id>  (14) 
8DP2_UMA

>  <pose_rank>  (14) 
13

>  <num_atoms_heavy>  (14) 
49

>  <num_torsions>  (14) 
15

>  <pose>  (14) 
[58.852142951987375, -4.3125096559959575, -1.0221909069926767, -0.6826581674723678, 0.745223187271751, 4.828728094856726, -0.21527263166168453, -0.5679990448885388, 3.6743913702728173, 2.2490716435029228, -0.3753759921732913, 0.34032479867595916, -3.9156604824875947, -1.8357611029709868, 8.97590683765091, -0.8418359781184324, -4.611307977666449, -2.7323698105919676, -0.9999270627163273, 3.3671757577446564, 0.7211153644001569]

>  <energy>  (14) 
-639.2459586667328

>  <inter_energy>  (14) 
-724.58210152843

>  <intra_energy>  (14) 
85.24582801463795

>  <rmsd>  (14) 
5.3741

>  <sdf_rank>  (14) 
0

$$$$

     RDKit          3D

 82 84  0  0  0  0  0  0  0  0999 V2000
   63.2599   -0.1298    0.9832 N   0  0  0  0  0  0  0  0  0  0  0  0
   63.5083    0.3590   -0.2845 C   0  0  0  0  0  0  0  0  0  0  0  0
   62.6548    1.3490   -0.7003 N   0  0  0  0  0  0  0  0  0  0  0  0
   61.6049    1.8860    0.0114 C   0  0  0  0  0  0  0  0  0  0  0  0
   61.4121    1.3277    1.3219 C   0  0  0  0  0  0  0  0  0  0  0  0
   62.2290    0.3566    1.7568 C   0  0  0  0  0  0  0  0  0  0  0  0
   64.4463   -0.0226   -0.9722 O   0  0  0  0  0  0  0  0  0  0  0  0
   60.9381    2.7845   -0.4831 O   0  0  0  0  0  0  0  0  0  0  0  0
   64.1594   -1.1520    1.5015 C   0  0  1  0  0  0  0  0  0  0  0  0
   63.9109   -1.4754    2.9631 C   0  0  2  0  0  0  0  0  0  0  0  0
   64.4857   -0.4953    3.8281 O   0  0  0  0  0  0  0  0  0  0  0  0
   64.5587   -2.8617    3.0553 C   0  0  1  0  0  0  0  0  0  0  0  0
   64.3278   -3.4466    1.6554 C   0  0  2  0  0  0  0  0  0  0  0  0
   63.8759   -2.3526    0.8274 O   0  0  0  0  0  0  0  0  0  0  0  0
   65.9563   -2.7239    3.3134 O   0  0  0  0  0  0  0  0  0  0  0  0
   63.3349   -4.5820    1.5616 C   0  0  0  0  0  0  0  0  0  0  0  0
   62.2876   -4.1860    0.6405 O   0  0  0  0  0  0  0  0  0  0  0  0
   61.1849   -5.1884    0.1274 P   0  0  1  0  0  0  0  0  0  0  0  0
   61.7066   -5.9840   -0.9966 O   0  0  0  0  0  0  0  0  0  0  0  0
   60.5664   -5.9357    1.2895 O   0  0  0  0  0  0  0  0  0  0  0  0
   60.0774   -4.1695   -0.3837 O   0  0  0  0  0  0  0  0  0  0  0  0
   59.9316   -2.5925   -0.4000 P   0  0  2  0  0  0  0  0  0  0  0  0
   60.9036   -1.9998   -1.3791 O   0  0  0  0  0  0  0  0  0  0  0  0
   59.9661   -2.0530    1.0030 O   0  0  0  0  0  0  0  0  0  0  0  0
   58.4593   -2.3736   -1.0437 O   0  0  0  0  0  0  0  0  0  0  0  0
   57.4297   -1.9050   -0.2119 C   0  0  2  0  0  0  0  0  0  0  0  0
   56.1051   -2.3302   -0.8275 C   0  0  2  0  0  0  0  0  0  0  0  0
   56.0783   -3.7784   -0.9601 N   0  0  0  0  0  0  0  0  0  0  0  0
   55.2521   -4.5730   -0.2710 C   0  0  0  0  0  0  0  0  0  0  0  0
   54.4410   -4.1285    0.5302 O   0  0  0  0  0  0  0  0  0  0  0  0
   55.3904   -6.0458   -0.5226 C   0  0  0  0  0  0  0  0  0  0  0  0
   55.9752   -1.6432   -2.1876 C   0  0  1  0  0  0  0  0  0  0  0  0
   54.6504   -1.9102   -2.6681 O   0  0  0  0  0  0  0  0  0  0  0  0
   56.0013   -0.1436   -1.9404 C   0  0  2  0  0  0  0  0  0  0  0  0
   55.8722    0.5757   -3.1620 O   0  0  0  0  0  0  0  0  0  0  0  0
   57.3053    0.2522   -1.2512 C   0  0  2  0  0  0  0  0  0  0  0  0
   57.4783   -0.4992   -0.0289 O   0  0  0  0  0  0  0  0  0  0  0  0
   57.3196    1.7163   -0.8577 C   0  0  0  0  0  0  0  0  0  0  0  0
   56.1736    2.0641   -0.0637 O   0  0  0  0  0  0  0  0  0  0  0  0
   54.5595   -2.5013   -3.9764 C   0  0  1  0  0  0  0  0  0  0  0  0
   54.1459   -3.9589   -3.8411 C   0  0  0  0  0  0  0  0  0  0  0  0
   54.8475   -4.8451   -4.3230 O   0  0  0  0  0  0  0  0  0  0  0  0
   53.5215   -1.7282   -4.7580 C   0  0  0  0  0  0  0  0  0  0  0  0
   53.0149   -4.1990   -3.1646 N   0  0  0  0  0  0  0  0  0  0  0  0
   52.4600   -5.5363   -3.0159 C   0  0  2  0  0  0  0  0  0  0  0  0
   51.3171   -5.7747   -3.9893 C   0  0  0  0  0  0  0  0  0  0  0  0
   50.7836   -4.8891   -4.6376 O   0  0  0  0  0  0  0  0  0  0  0  0
   50.9395   -7.0354   -4.0039 O   0  0  0  0  0  0  0  0  0  0  0  0
   51.9226   -5.7351   -1.6023 C   0  0  0  0  0  0  0  0  0  0  0  0
   62.8158    1.7307   -1.6433 H   0  0  0  0  0  0  0  0  0  0  0  0
   60.5987    1.6949    1.9649 H   0  0  0  0  0  0  0  0  0  0  0  0
   62.0709   -0.0638    2.7609 H   0  0  0  0  0  0  0  0  0  0  0  0
   65.1829   -0.7714    1.3683 H   0  0  0  0  0  0  0  0  0  0  0  0
   62.8575   -1.4702    3.2798 H   0  0  0  0  0  0  0  0  0  0  0  0
   64.3325   -0.7564    4.7706 H   0  0  0  0  0  0  0  0  0  0  0  0
   64.1470   -3.4905    3.8585 H   0  0  0  0  0  0  0  0  0  0  0  0
   65.2790   -3.8960    1.3341 H   0  0  0  0  0  0  0  0  0  0  0  0
   66.1114   -2.7087    4.2911 H   0  0  0  0  0  0  0  0  0  0  0  0
   63.8370   -5.4872    1.1893 H   0  0  0  0  0  0  0  0  0  0  0  0
   62.9100   -4.8009    2.5523 H   0  0  0  0  0  0  0  0  0  0  0  0
   57.5490   -2.3414    0.7908 H   0  0  0  0  0  0  0  0  0  0  0  0
   55.2574   -2.0354   -0.1914 H   0  0  0  0  0  0  0  0  0  0  0  0
   56.7334   -4.2173   -1.6228 H   0  0  0  0  0  0  0  0  0  0  0  0
   55.4404   -6.5787    0.4384 H   0  0  0  0  0  0  0  0  0  0  0  0
   54.5218   -6.4030   -1.0952 H   0  0  0  0  0  0  0  0  0  0  0  0
   56.3102   -6.2352   -1.0952 H   0  0  0  0  0  0  0  0  0  0  0  0
   56.7641   -1.9803   -2.8760 H   0  0  0  0  0  0  0  0  0  0  0  0
   55.1504    0.1096   -1.2910 H   0  0  0  0  0  0  0  0  0  0  0  0
   55.7007    1.5308   -2.9660 H   0  0  0  0  0  0  0  0  0  0  0  0
   58.1074    0.0458   -1.9750 H   0  0  0  0  0  0  0  0  0  0  0  0
   58.2311    1.9204   -0.2768 H   0  0  0  0  0  0  0  0  0  0  0  0
   57.2953    2.3189   -1.7776 H   0  0  0  0  0  0  0  0  0  0  0  0
   56.4039    1.9942    0.8966 H   0  0  0  0  0  0  0  0  0  0  0  0
   55.5277   -2.4623   -4.4971 H   0  0  0  0  0  0  0  0  0  0  0  0
   52.8398   -1.2206   -4.0598 H   0  0  0  0  0  0  0  0  0  0  0  0
   54.0212   -0.9805   -5.3914 H   0  0  0  0  0  0  0  0  0  0  0  0
   52.9483   -2.4212   -5.3914 H   0  0  0  0  0  0  0  0  0  0  0  0
   52.5186   -3.4063   -2.7329 H   0  0  0  0  0  0  0  0  0  0  0  0
   53.2736   -6.2470   -3.2233 H   0  0  0  0  0  0  0  0  0  0  0  0
   52.6948   -5.4494   -0.8729 H   0  0  0  0  0  0  0  0  0  0  0  0
   51.0311   -5.1072   -1.4573 H   0  0  0  0  0  0  0  0  0  0  0  0
   51.6542   -6.7919   -1.4573 H   0  0  0  0  0  0  0  0  0  0  0  0
  1  2  1  0
  1  6  1  0
  9  1  1  0
  2  3  1  0
  2  7  2  0
  3  4  1  0
  4  5  1  0
  4  8  2  0
  5  6  2  0
  9 10  1  0
  9 14  1  0
 10 11  1  0
 10 12  1  0
 12 13  1  0
 12 15  1  0
 13 14  1  0
 13 16  1  0
 16 17  1  0
 17 18  1  0
 18 19  2  0
 18 20  1  1
 18 21  1  0
 21 22  1  0
 22 23  2  0
 22 24  1  1
 22 25  1  0
 26 25  1  0
 26 27  1  0
 26 37  1  0
 27 28  1  0
 27 32  1  0
 28 29  1  0
 29 30  2  0
 29 31  1  0
 32 33  1  0
 32 34  1  0
 33 40  1  0
 34 35  1  0
 34 36  1  0
 36 37  1  0
 36 38  1  0
 38 39  1  0
 40 41  1  0
 40 43  1  0
 41 42  2  0
 41 44  1  0
 44 45  1  0
 45 46  1  0
 45 49  1  0
 46 47  2  0
 46 48  1  0
  3 50  1  0
  5 51  1  0
  6 52  1  0
  9 53  1  1
 10 54  1  6
 11 55  1  0
 12 56  1  1
 13 57  1  6
 15 58  1  0
 16 59  1  0
 16 60  1  0
 26 61  1  1
 27 62  1  1
 28 63  1  0
 31 64  1  0
 31 65  1  0
 31 66  1  0
 32 67  1  6
 34 68  1  1
 35 69  1  0
 36 70  1  6
 38 71  1  0
 38 72  1  0
 39 73  1  0
 40 74  1  6
 43 75  1  0
 43 76  1  0
 43 77  1  0
 44 78  1  0
 45 79  1  6
 49 80  1  0
 49 81  1  0
 49 82  1  0
M  CHG  3  20  -1  24  -1  48  -1
M  END
>  <filename_input>  (15) 
8DP2_UMA_docked.sdf

>  <pdb_id>  (15) 
8DP2_UMA

>  <pose_rank>  (15) 
14

>  <num_atoms_heavy>  (15) 
49

>  <num_torsions>  (15) 
15

>  <pose>  (15) 
[58.45927869251099, -2.3735759398806713, -1.0437404600505706, -0.25489488412735, -0.040648002929694935, -0.518519881920836, 12.208433783239585, 0.06927949177495127, -0.17104245573921595, 6.009523845230759, 5.938752452651202, 0.6196736359603856, -0.13718184380672288, 0.007661651454536979, -11.974581130876748, -0.8611372122256545, -3.303659582378897, 1.9470891480515748, -5.639705307753992, 1.2879153174664566, -5.2178157362897]

>  <energy>  (15) 
-742.1866106308543

>  <inter_energy>  (15) 
-754.5203338625755

>  <intra_energy>  (15) 
19.27777827279879

>  <rmsd>  (15) 
4.11382

>  <sdf_rank>  (15) 
0

$$$$

     RDKit          3D

 82 84  0  0  0  0  0  0  0  0999 V2000
   66.0295   -3.5714    3.9620 N   0  0  0  0  0  0  0  0  0  0  0  0
   67.2321   -3.4594    3.2920 C   0  0  0  0  0  0  0  0  0  0  0  0
   68.0917   -4.5140    3.4661 N   0  0  0  0  0  0  0  0  0  0  0  0
   67.8703   -5.6425    4.2241 C   0  0  0  0  0  0  0  0  0  0  0  0
   66.5961   -5.6868    4.8879 C   0  0  0  0  0  0  0  0  0  0  0  0
   65.7342   -4.6698    4.7392 C   0  0  0  0  0  0  0  0  0  0  0  0
   67.4990   -2.5169    2.5578 O   0  0  0  0  0  0  0  0  0  0  0  0
   68.7258   -6.5158    4.2696 O   0  0  0  0  0  0  0  0  0  0  0  0
   65.0539   -2.5044    3.7820 C   0  0  1  0  0  0  0  0  0  0  0  0
   65.6795   -1.1219    3.7830 C   0  0  2  0  0  0  0  0  0  0  0  0
   65.9661   -0.6707    5.1072 O   0  0  0  0  0  0  0  0  0  0  0  0
   64.5881   -0.3223    3.0620 C   0  0  1  0  0  0  0  0  0  0  0  0
   63.9856   -1.3506    2.0953 C   0  0  2  0  0  0  0  0  0  0  0  0
   64.5079   -2.6373    2.4934 O   0  0  0  0  0  0  0  0  0  0  0  0
   63.6065    0.1107    4.0043 O   0  0  0  0  0  0  0  0  0  0  0  0
   64.2698   -1.1333    0.6271 C   0  0  0  0  0  0  0  0  0  0  0  0
   63.1092   -0.4965    0.0357 O   0  0  0  0  0  0  0  0  0  0  0  0
   63.1385    0.9811   -0.5116 P   0  0  1  0  0  0  0  0  0  0  0  0
   63.6882    1.8890    0.5093 O   0  0  0  0  0  0  0  0  0  0  0  0
   63.7554    1.0221   -1.8933 O   0  0  0  0  0  0  0  0  0  0  0  0
   61.5851    1.2505   -0.7120 O   0  0  0  0  0  0  0  0  0  0  0  0
   60.3856    1.6408    0.2457 P   0  0  2  0  0  0  0  0  0  0  0  0
   60.0079    3.0782    0.0315 O   0  0  0  0  0  0  0  0  0  0  0  0
   60.6899    1.2212    1.6570 O   0  0  0  0  0  0  0  0  0  0  0  0
   59.1550    0.7631   -0.3422 O   0  0  0  0  0  0  0  0  0  0  0  0
   58.3596    0.0396    0.5609 C   0  0  2  0  0  0  0  0  0  0  0  0
   57.9383   -1.2525   -0.1229 C   0  0  2  0  0  0  0  0  0  0  0  0
   59.1236   -1.9969   -0.5183 N   0  0  0  0  0  0  0  0  0  0  0  0
   59.3560   -3.2662   -0.1667 C   0  0  0  0  0  0  0  0  0  0  0  0
   58.5699   -3.9046    0.5204 O   0  0  0  0  0  0  0  0  0  0  0  0
   60.6482   -3.8582   -0.6476 C   0  0  0  0  0  0  0  0  0  0  0  0
   57.0797   -0.8865   -1.3343 C   0  0  1  0  0  0  0  0  0  0  0  0
   56.5462   -2.1113   -1.8563 O   0  0  0  0  0  0  0  0  0  0  0  0
   55.8687   -0.1274   -0.8169 C   0  0  2  0  0  0  0  0  0  0  0  0
   55.0050    0.2424   -1.8862 O   0  0  0  0  0  0  0  0  0  0  0  0
   56.3156    1.1251   -0.0662 C   0  0  2  0  0  0  0  0  0  0  0  0
   57.2291    0.7765    0.9981 O   0  0  0  0  0  0  0  0  0  0  0  0
   55.1514    1.8422    0.5886 C   0  0  0  0  0  0  0  0  0  0  0  0
   54.8900    3.1102   -0.0348 O   0  0  0  0  0  0  0  0  0  0  0  0
   55.2062   -2.4412   -1.4498 C   0  0  1  0  0  0  0  0  0  0  0  0
   54.4532   -3.0295   -2.6335 C   0  0  0  0  0  0  0  0  0  0  0  0
   54.3533   -2.3909   -3.6785 O   0  0  0  0  0  0  0  0  0  0  0  0
   55.3023   -3.4524   -0.3298 C   0  0  0  0  0  0  0  0  0  0  0  0
   53.9448   -4.2577   -2.4678 N   0  0  0  0  0  0  0  0  0  0  0  0
   53.1416   -4.9170   -3.4869 C   0  0  2  0  0  0  0  0  0  0  0  0
   52.2642   -6.0031   -2.8860 C   0  0  0  0  0  0  0  0  0  0  0  0
   52.1893   -6.2283   -1.6889 O   0  0  0  0  0  0  0  0  0  0  0  0
   51.6439   -6.7020   -3.8128 O   0  0  0  0  0  0  0  0  0  0  0  0
   54.0400   -5.5652   -4.5354 C   0  0  0  0  0  0  0  0  0  0  0  0
   68.9975   -4.4559    2.9791 H   0  0  0  0  0  0  0  0  0  0  0  0
   66.3292   -6.5503    5.5148 H   0  0  0  0  0  0  0  0  0  0  0  0
   64.7626   -4.7142    5.2531 H   0  0  0  0  0  0  0  0  0  0  0  0
   64.3318   -2.5921    4.6071 H   0  0  0  0  0  0  0  0  0  0  0  0
   66.6631   -1.0436    3.2969 H   0  0  0  0  0  0  0  0  0  0  0  0
   65.5682   -1.2970    5.7626 H   0  0  0  0  0  0  0  0  0  0  0  0
   64.9618    0.5793    2.5545 H   0  0  0  0  0  0  0  0  0  0  0  0
   62.8919   -1.2614    2.1720 H   0  0  0  0  0  0  0  0  0  0  0  0
   63.9432   -0.0378    4.9234 H   0  0  0  0  0  0  0  0  0  0  0  0
   65.1513   -0.4861    0.5093 H   0  0  0  0  0  0  0  0  0  0  0  0
   64.4731   -2.0938    0.1310 H   0  0  0  0  0  0  0  0  0  0  0  0
   58.9456   -0.1745    1.4668 H   0  0  0  0  0  0  0  0  0  0  0  0
   57.3524   -1.8896    0.5560 H   0  0  0  0  0  0  0  0  0  0  0  0
   59.8243   -1.5190   -1.1027 H   0  0  0  0  0  0  0  0  0  0  0  0
   61.2661   -4.1413    0.2173 H   0  0  0  0  0  0  0  0  0  0  0  0
   60.4388   -4.7502   -1.2563 H   0  0  0  0  0  0  0  0  0  0  0  0
   61.1870   -3.1171   -1.2563 H   0  0  0  0  0  0  0  0  0  0  0  0
   57.6628   -0.3162   -2.0724 H   0  0  0  0  0  0  0  0  0  0  0  0
   55.3182   -0.7896   -0.1325 H   0  0  0  0  0  0  0  0  0  0  0  0
   54.1602    0.6042   -1.5181 H   0  0  0  0  0  0  0  0  0  0  0  0
   56.7899    1.7764   -0.8151 H   0  0  0  0  0  0  0  0  0  0  0  0
   54.2531    1.2126    0.5064 H   0  0  0  0  0  0  0  0  0  0  0  0
   55.4096    2.0247    1.6422 H   0  0  0  0  0  0  0  0  0  0  0  0
   54.7483    3.7980    0.6630 H   0  0  0  0  0  0  0  0  0  0  0  0
   54.6656   -1.5479   -1.1040 H   0  0  0  0  0  0  0  0  0  0  0  0
   55.2530   -2.9328    0.6384 H   0  0  0  0  0  0  0  0  0  0  0  0
   54.4679   -4.1650   -0.4066 H   0  0  0  0  0  0  0  0  0  0  0  0
   56.2561   -3.9950   -0.4066 H   0  0  0  0  0  0  0  0  0  0  0  0
   54.1294   -4.7549   -1.5848 H   0  0  0  0  0  0  0  0  0  0  0  0
   52.5073   -4.1445   -3.9462 H   0  0  0  0  0  0  0  0  0  0  0  0
   54.8341   -6.1381   -4.0342 H   0  0  0  0  0  0  0  0  0  0  0  0
   53.4414   -6.2408   -5.1641 H   0  0  0  0  0  0  0  0  0  0  0  0
   54.4924   -4.7841   -5.1641 H   0  0  0  0  0  0  0  0  0  0  0  0
  1  2  1  0
  1  6  1  0
  9  1  1  0
  2  3  1  0
  2  7  2  0
  3  4  1  0
  4  5  1  0
  4  8  2  0
  5  6  2  0
  9 10  1  0
  9 14  1  0
 10 11  1  0
 10 12  1  0
 12 13  1  0
 12 15  1  0
 13 14  1  0
 13 16  1  0
 16 17  1  0
 17 18  1  0
 18 19  2  0
 18 20  1  6
 18 21  1  0
 21 22  1  0
 22 23  2  0
 22 24  1  1
 22 25  1  0
 26 25  1  0
 26 27  1  0
 26 37  1  0
 27 28  1  0
 27 32  1  0
 28 29  1  0
 29 30  2  0
 29 31  1  0
 32 33  1  0
 32 34  1  0
 33 40  1  0
 34 35  1  0
 34 36  1  0
 36 37  1  0
 36 38  1  0
 38 39  1  0
 40 41  1  0
 40 43  1  0
 41 42  2  0
 41 44  1  0
 44 45  1  0
 45 46  1  0
 45 49  1  0
 46 47  2  0
 46 48  1  0
  3 50  1  0
  5 51  1  0
  6 52  1  0
  9 53  1  1
 10 54  1  6
 11 55  1  0
 12 56  1  6
 13 57  1  6
 15 58  1  0
 16 59  1  0
 16 60  1  0
 26 61  1  1
 27 62  1  1
 28 63  1  0
 31 64  1  0
 31 65  1  0
 31 66  1  0
 32 67  1  6
 34 68  1  1
 35 69  1  0
 36 70  1  6
 38 71  1  0
 38 72  1  0
 39 73  1  0
 40 74  1  1
 43 75  1  0
 43 76  1  0
 43 77  1  0
 44 78  1  0
 45 79  1  6
 49 80  1  0
 49 81  1  0
 49 82  1  0
M  CHG  3  20  -1  24  -1  48  -1
M  END
>  <filename_input>  (16) 
8DP2_UMA_docked.sdf

>  <pdb_id>  (16) 
8DP2_UMA

>  <pose_rank>  (16) 
15

>  <num_atoms_heavy>  (16) 
49

>  <num_torsions>  (16) 
15

>  <pose>  (16) 
[59.155040829711965, 0.7630678096398341, -0.34217502565689006, -0.9801122334669861, -0.6669791106338491, -5.771776144528451, 6.123143461748366, 6.564145539200292, -3.060940067904258, -2.6574483900725174, 6.511707877202407, 1.7872580833033969, 5.1456894232581165, 0.29223272815663465, 7.283584325060398, -0.22828669998414367, -1.8719395734909272, -3.789936663600465, 5.9103415886666495, 9.995071646444307, 3.6271576013895603]

>  <energy>  (16) 
-703.353583914328

>  <inter_energy>  (16) 
-770.5152696297595

>  <intra_energy>  (16) 
73.55256202125938

>  <rmsd>  (16) 
3.01203

>  <sdf_rank>  (16) 
0

$$$$

     RDKit          3D

 82 84  0  0  0  0  0  0  0  0999 V2000
   65.6627   -1.2696    3.9980 N   0  0  0  0  0  0  0  0  0  0  0  0
   64.9334   -0.1536    4.3589 C   0  0  0  0  0  0  0  0  0  0  0  0
   65.3277    0.4413    5.5302 N   0  0  0  0  0  0  0  0  0  0  0  0
   66.3561    0.0401    6.3539 C   0  0  0  0  0  0  0  0  0  0  0  0
   67.0690   -1.1264    5.9098 C   0  0  0  0  0  0  0  0  0  0  0  0
   66.7061   -1.7322    4.7693 C   0  0  0  0  0  0  0  0  0  0  0  0
   64.0335    0.3050    3.6671 O   0  0  0  0  0  0  0  0  0  0  0  0
   66.6075    0.6851    7.3626 O   0  0  0  0  0  0  0  0  0  0  0  0
   65.3225   -1.9213    2.7401 C   0  0  1  0  0  0  0  0  0  0  0  0
   63.8668   -2.3429    2.6649 C   0  0  2  0  0  0  0  0  0  0  0  0
   63.6273   -3.5524    3.3853 O   0  0  0  0  0  0  0  0  0  0  0  0
   63.6899   -2.4626    1.1468 C   0  0  1  0  0  0  0  0  0  0  0  0
   64.6443   -1.3921    0.6006 C   0  0  2  0  0  0  0  0  0  0  0  0
   65.4618   -0.9701    1.7144 O   0  0  0  0  0  0  0  0  0  0  0  0
   64.0984   -3.7610    0.7153 O   0  0  0  0  0  0  0  0  0  0  0  0
   63.9979   -0.1789   -0.0271 C   0  0  0  0  0  0  0  0  0  0  0  0
   62.7515    0.0750    0.6688 O   0  0  0  0  0  0  0  0  0  0  0  0
   61.9362    1.4118    0.4893 P   0  0  1  0  0  0  0  0  0  0  0  0
   62.0865    2.2612    1.6828 O   0  0  0  0  0  0  0  0  0  0  0  0
   62.2311    2.0352   -0.8582 O   0  0  0  0  0  0  0  0  0  0  0  0
   60.4552    0.8421    0.3992 O   0  0  0  0  0  0  0  0  0  0  0  0
   59.1139    1.0831    1.2060 P   0  0  2  0  0  0  0  0  0  0  0  0
   58.6526    2.4997    1.0189 O   0  0  0  0  0  0  0  0  0  0  0  0
   59.2649    0.5990    2.6214 O   0  0  0  0  0  0  0  0  0  0  0  0
   58.0450    0.1566    0.4127 O   0  0  0  0  0  0  0  0  0  0  0  0
   58.4975   -0.5962   -0.6829 C   0  0  2  0  0  0  0  0  0  0  0  0
   57.5130   -0.3927   -1.8248 C   0  0  2  0  0  0  0  0  0  0  0  0
   57.4264    1.0247   -2.1394 N   0  0  0  0  0  0  0  0  0  0  0  0
   56.5271    1.8530   -1.5972 C   0  0  0  0  0  0  0  0  0  0  0  0
   55.7021    1.4706   -0.7783 O   0  0  0  0  0  0  0  0  0  0  0  0
   56.5748    3.2775   -2.0663 C   0  0  0  0  0  0  0  0  0  0  0  0
   56.1587   -0.9499   -1.3845 C   0  0  1  0  0  0  0  0  0  0  0  0
   55.2972   -0.9142   -2.5307 O   0  0  0  0  0  0  0  0  0  0  0  0
   56.3520   -2.4291   -1.0928 C   0  0  2  0  0  0  0  0  0  0  0  0
   55.1283   -3.0317   -0.6857 O   0  0  0  0  0  0  0  0  0  0  0  0
   57.4009   -2.6157    0.0013 C   0  0  2  0  0  0  0  0  0  0  0  0
   58.6401   -1.9730   -0.3726 O   0  0  0  0  0  0  0  0  0  0  0  0
   57.7307   -4.0776    0.2304 C   0  0  0  0  0  0  0  0  0  0  0  0
   58.4545   -4.6387   -0.8768 O   0  0  0  0  0  0  0  0  0  0  0  0
   55.5185   -1.9348   -3.5200 C   0  0  1  0  0  0  0  0  0  0  0  0
   54.1878   -2.5725   -3.8898 C   0  0  0  0  0  0  0  0  0  0  0  0
   53.2278   -1.8653   -4.1868 O   0  0  0  0  0  0  0  0  0  0  0  0
   56.1417   -1.2744   -4.7290 C   0  0  0  0  0  0  0  0  0  0  0  0
   54.1461   -3.9114   -3.8898 N   0  0  0  0  0  0  0  0  0  0  0  0
   52.9244   -4.6569   -4.1543 C   0  0  2  0  0  0  0  0  0  0  0  0
   52.8388   -5.9064   -3.2929 C   0  0  0  0  0  0  0  0  0  0  0  0
   53.7461   -6.2996   -2.5777 O   0  0  0  0  0  0  0  0  0  0  0  0
   51.6955   -6.5377   -3.4557 O   0  0  0  0  0  0  0  0  0  0  0  0
   52.8709   -5.0893   -5.6161 C   0  0  0  0  0  0  0  0  0  0  0  0
   64.7995    1.2751    5.8246 H   0  0  0  0  0  0  0  0  0  0  0  0
   67.9079   -1.5205    6.5023 H   0  0  0  0  0  0  0  0  0  0  0  0
   67.2582   -2.6249    4.4401 H   0  0  0  0  0  0  0  0  0  0  0  0
   65.9753   -2.8024    2.6524 H   0  0  0  0  0  0  0  0  0  0  0  0
   63.1464   -1.6536    3.1295 H   0  0  0  0  0  0  0  0  0  0  0  0
   63.6634   -3.3699    4.3577 H   0  0  0  0  0  0  0  0  0  0  0  0
   62.6517   -2.3269    0.8097 H   0  0  0  0  0  0  0  0  0  0  0  0
   65.2058   -1.8533   -0.2252 H   0  0  0  0  0  0  0  0  0  0  0  0
   64.2774   -4.3302    1.5053 H   0  0  0  0  0  0  0  0  0  0  0  0
   64.6637    0.6913    0.0702 H   0  0  0  0  0  0  0  0  0  0  0  0
   63.8094   -0.3564   -1.0962 H   0  0  0  0  0  0  0  0  0  0  0  0
   59.5010   -0.2487   -0.9698 H   0  0  0  0  0  0  0  0  0  0  0  0
   57.8422   -0.9189   -2.7330 H   0  0  0  0  0  0  0  0  0  0  0  0
   58.0962    1.4129   -2.8188 H   0  0  0  0  0  0  0  0  0  0  0  0
   56.5973    3.9496   -1.1959 H   0  0  0  0  0  0  0  0  0  0  0  0
   57.4787    3.4335   -2.6735 H   0  0  0  0  0  0  0  0  0  0  0  0
   55.6834    3.4936   -2.6735 H   0  0  0  0  0  0  0  0  0  0  0  0
   55.7628   -0.3893   -0.5248 H   0  0  0  0  0  0  0  0  0  0  0  0
   56.6943   -2.9169   -2.0174 H   0  0  0  0  0  0  0  0  0  0  0  0
   55.0842   -3.0534    0.3031 H   0  0  0  0  0  0  0  0  0  0  0  0
   56.9713   -2.1760    0.9135 H   0  0  0  0  0  0  0  0  0  0  0  0
   58.3441   -4.1666    1.1392 H   0  0  0  0  0  0  0  0  0  0  0  0
   56.7854   -4.6298    0.3374 H   0  0  0  0  0  0  0  0  0  0  0  0
   59.1892   -5.2081   -0.5362 H   0  0  0  0  0  0  0  0  0  0  0  0
   56.1852   -2.7211   -3.1362 H   0  0  0  0  0  0  0  0  0  0  0  0
   56.8619   -0.5111   -4.3994 H   0  0  0  0  0  0  0  0  0  0  0  0
   56.6615   -2.0322   -5.3336 H   0  0  0  0  0  0  0  0  0  0  0  0
   55.3549   -0.7995   -5.3336 H   0  0  0  0  0  0  0  0  0  0  0  0
   55.0123   -4.4336   -3.6950 H   0  0  0  0  0  0  0  0  0  0  0  0
   52.0826   -3.9893   -3.9180 H   0  0  0  0  0  0  0  0  0  0  0  0
   52.7362   -6.1797   -5.6712 H   0  0  0  0  0  0  0  0  0  0  0  0
   52.0277   -4.5899   -6.1156 H   0  0  0  0  0  0  0  0  0  0  0  0
   53.8104   -4.8102   -6.1156 H   0  0  0  0  0  0  0  0  0  0  0  0
  1  2  1  0
  1  6  1  0
  9  1  1  0
  2  3  1  0
  2  7  2  0
  3  4  1  0
  4  5  1  0
  4  8  2  0
  5  6  2  0
  9 10  1  0
  9 14  1  0
 10 11  1  0
 10 12  1  0
 12 13  1  0
 12 15  1  0
 13 14  1  0
 13 16  1  0
 16 17  1  0
 17 18  1  0
 18 19  2  0
 18 20  1  6
 18 21  1  0
 21 22  1  0
 22 23  2  0
 22 24  1  1
 22 25  1  0
 26 25  1  0
 26 27  1  0
 26 37  1  0
 27 28  1  0
 27 32  1  0
 28 29  1  0
 29 30  2  0
 29 31  1  0
 32 33  1  0
 32 34  1  0
 33 40  1  0
 34 35  1  0
 34 36  1  0
 36 37  1  0
 36 38  1  0
 38 39  1  0
 40 41  1  0
 40 43  1  0
 41 42  2  0
 41 44  1  0
 44 45  1  0
 45 46  1  0
 45 49  1  0
 46 47  2  0
 46 48  1  0
  3 50  1  0
  5 51  1  0
  6 52  1  0
  9 53  1  6
 10 54  1  1
 11 55  1  0
 12 56  1  1
 13 57  1  6
 15 58  1  0
 16 59  1  0
 16 60  1  0
 26 61  1  6
 27 62  1  6
 28 63  1  0
 31 64  1  0
 31 65  1  0
 31 66  1  0
 32 67  1  1
 34 68  1  6
 35 69  1  0
 36 70  1  1
 38 71  1  0
 38 72  1  0
 39 73  1  0
 40 74  1  1
 43 75  1  0
 43 76  1  0
 43 77  1  0
 44 78  1  0
 45 79  1  1
 49 80  1  0
 49 81  1  0
 49 82  1  0
M  CHG  3  20  -1  24  -1  48  -1
M  END
>  <filename_input>  (17) 
8DP2_UMA_docked.sdf

>  <pdb_id>  (17) 
8DP2_UMA

>  <pose_rank>  (17) 
16

>  <num_atoms_heavy>  (17) 
49

>  <num_torsions>  (17) 
15

>  <pose>  (17) 
[58.04501442420789, 0.1565695995595049, 0.4126909483119537, 1.98846470500728, 0.9870737689845142, 1.2662285440601595, 0.050877045040295395, 2.764932584507452, 0.10706624452369418, -3.0327815781416523, 0.07844129821641109, 3.644905667655317, -0.8793271957419566, 0.09402023977281637, -1.3026763733765037, -0.953145270021745, -7.401768798015887, 1.5376099070209572, 0.587829689903411, 6.014956405837424, 3.3601067632449038]

>  <energy>  (17) 
-716.520729847233

>  <inter_energy>  (17) 
-823.2819936300489

>  <intra_energy>  (17) 
115.41143694821062

>  <rmsd>  (17) 
3.42684

>  <sdf_rank>  (17) 
0

$$$$

     RDKit          3D

 82 84  0  0  0  0  0  0  0  0999 V2000
   64.7802   -0.3019    3.6891 N   0  0  0  0  0  0  0  0  0  0  0  0
   64.5009    0.9372    4.2314 C   0  0  0  0  0  0  0  0  0  0  0  0
   64.9232    1.1111    5.5248 N   0  0  0  0  0  0  0  0  0  0  0  0
   65.5832    0.1902    6.3082 C   0  0  0  0  0  0  0  0  0  0  0  0
   65.8398   -1.0734    5.6729 C   0  0  0  0  0  0  0  0  0  0  0  0
   65.4374   -1.2752    4.4092 C   0  0  0  0  0  0  0  0  0  0  0  0
   63.9613    1.8343    3.5970 O   0  0  0  0  0  0  0  0  0  0  0  0
   65.9184    0.4952    7.4445 O   0  0  0  0  0  0  0  0  0  0  0  0
   64.3975   -0.5345    2.3027 C   0  0  1  0  0  0  0  0  0  0  0  0
   63.1298   -1.3574    2.1671 C   0  0  2  0  0  0  0  0  0  0  0  0
   63.3790   -2.7504    2.3584 O   0  0  0  0  0  0  0  0  0  0  0  0
   62.7029   -0.9783    0.7444 C   0  0  1  0  0  0  0  0  0  0  0  0
   63.1986    0.4675    0.6068 C   0  0  2  0  0  0  0  0  0  0  0  0
   64.0664    0.7088    1.7362 O   0  0  0  0  0  0  0  0  0  0  0  0
   63.3637   -1.8234   -0.1980 O   0  0  0  0  0  0  0  0  0  0  0  0
   62.1325    1.5377    0.5638 C   0  0  0  0  0  0  0  0  0  0  0  0
   60.8842    0.9109    0.1749 O   0  0  0  0  0  0  0  0  0  0  0  0
   59.4813    1.4415    0.6588 P   0  0  1  0  0  0  0  0  0  0  0  0
   59.6442    2.2916    1.8501 O   0  0  0  0  0  0  0  0  0  0  0  0
   58.6985    2.0080   -0.5065 O   0  0  0  0  0  0  0  0  0  0  0  0
   58.7693    0.0749    1.0480 O   0  0  0  0  0  0  0  0  0  0  0  0
   58.6911   -1.3686    0.4012 P   0  0  2  0  0  0  0  0  0  0  0  0
   57.6135   -2.1711    1.0717 O   0  0  0  0  0  0  0  0  0  0  0  0
   60.0606   -1.9860    0.3414 O   0  0  0  0  0  0  0  0  0  0  0  0
   58.1532   -1.0628   -1.0979 O   0  0  0  0  0  0  0  0  0  0  0  0
   56.7672   -1.0633   -1.3231 C   0  0  2  0  0  0  0  0  0  0  0  0
   56.4570   -2.1799   -2.3088 C   0  0  2  0  0  0  0  0  0  0  0  0
   56.9182   -3.4466   -1.7625 N   0  0  0  0  0  0  0  0  0  0  0  0
   56.2027   -4.1960   -0.9168 C   0  0  0  0  0  0  0  0  0  0  0  0
   55.0861   -3.8655   -0.5408 O   0  0  0  0  0  0  0  0  0  0  0  0
   56.8570   -5.4589   -0.4387 C   0  0  0  0  0  0  0  0  0  0  0  0
   57.1588   -1.8529   -3.6276 C   0  0  1  0  0  0  0  0  0  0  0  0
   56.7103   -2.8155   -4.5918 O   0  0  0  0  0  0  0  0  0  0  0  0
   56.6021   -0.5265   -4.1187 C   0  0  2  0  0  0  0  0  0  0  0  0
   57.1971   -0.1519   -5.3564 O   0  0  0  0  0  0  0  0  0  0  0  0
   56.8541    0.5651   -3.0809 C   0  0  2  0  0  0  0  0  0  0  0  0
   56.2956    0.1854   -1.8033 O   0  0  0  0  0  0  0  0  0  0  0  0
   56.1950    1.8761   -3.4621 C   0  0  0  0  0  0  0  0  0  0  0  0
   54.7649    1.8065   -3.3411 O   0  0  0  0  0  0  0  0  0  0  0  0
   55.3506   -3.2639   -4.4523 C   0  0  1  0  0  0  0  0  0  0  0  0
   54.4905   -2.5963   -5.5147 C   0  0  0  0  0  0  0  0  0  0  0  0
   53.3611   -2.2020   -5.2340 O   0  0  0  0  0  0  0  0  0  0  0  0
   55.3417   -4.7650   -4.6323 C   0  0  0  0  0  0  0  0  0  0  0  0
   55.0413   -2.4549   -6.7276 N   0  0  0  0  0  0  0  0  0  0  0  0
   54.3129   -1.8994   -7.8587 C   0  0  2  0  0  0  0  0  0  0  0  0
   54.8101   -0.5065   -8.2094 C   0  0  0  0  0  0  0  0  0  0  0  0
   54.1825    0.5146   -7.9794 O   0  0  0  0  0  0  0  0  0  0  0  0
   55.9659   -0.5415   -8.8378 O   0  0  0  0  0  0  0  0  0  0  0  0
   52.8253   -1.8001   -7.5365 C   0  0  0  0  0  0  0  0  0  0  0  0
   64.7261    2.0258    5.9553 H   0  0  0  0  0  0  0  0  0  0  0  0
   66.3634   -1.8710    6.2203 H   0  0  0  0  0  0  0  0  0  0  0  0
   65.6382   -2.2467    3.9340 H   0  0  0  0  0  0  0  0  0  0  0  0
   65.2391   -1.0570    1.8244 H   0  0  0  0  0  0  0  0  0  0  0  0
   62.3506   -1.1594    2.9179 H   0  0  0  0  0  0  0  0  0  0  0  0
   63.4146   -2.9493    3.3276 H   0  0  0  0  0  0  0  0  0  0  0  0
   61.6229   -1.0828    0.5633 H   0  0  0  0  0  0  0  0  0  0  0  0
   63.6951    0.5453   -0.3717 H   0  0  0  0  0  0  0  0  0  0  0  0
   63.8959   -2.5039    0.2855 H   0  0  0  0  0  0  0  0  0  0  0  0
   62.0255    1.9982    1.5570 H   0  0  0  0  0  0  0  0  0  0  0  0
   62.4071    2.3220   -0.1570 H   0  0  0  0  0  0  0  0  0  0  0  0
   56.2466   -1.2328   -0.3691 H   0  0  0  0  0  0  0  0  0  0  0  0
   55.3749   -2.2649   -2.4867 H   0  0  0  0  0  0  0  0  0  0  0  0
   57.8493   -3.7859   -2.0430 H   0  0  0  0  0  0  0  0  0  0  0  0
   56.8648   -5.4741    0.6612 H   0  0  0  0  0  0  0  0  0  0  0  0
   56.2954   -6.3274   -0.8134 H   0  0  0  0  0  0  0  0  0  0  0  0
   57.8903   -5.5011   -0.8134 H   0  0  0  0  0  0  0  0  0  0  0  0
   58.2513   -1.8410   -3.5000 H   0  0  0  0  0  0  0  0  0  0  0  0
   55.5192   -0.6466   -4.2705 H   0  0  0  0  0  0  0  0  0  0  0  0
   58.0218    0.3673   -5.1823 H   0  0  0  0  0  0  0  0  0  0  0  0
   57.9458    0.6900   -3.0291 H   0  0  0  0  0  0  0  0  0  0  0  0
   56.5706    2.6698   -2.7996 H   0  0  0  0  0  0  0  0  0  0  0  0
   56.4403    2.0907   -4.5127 H   0  0  0  0  0  0  0  0  0  0  0  0
   54.5149    1.7943   -2.3833 H   0  0  0  0  0  0  0  0  0  0  0  0
   54.9462   -3.0017   -3.4635 H   0  0  0  0  0  0  0  0  0  0  0  0
   55.3388   -5.2526   -3.6463 H   0  0  0  0  0  0  0  0  0  0  0  0
   54.4418   -5.0621   -5.1908 H   0  0  0  0  0  0  0  0  0  0  0  0
   56.2380   -5.0727   -5.1908 H   0  0  0  0  0  0  0  0  0  0  0  0
   56.0182   -2.7508   -6.8651 H   0  0  0  0  0  0  0  0  0  0  0  0
   54.4791   -2.5744   -8.7112 H   0  0  0  0  0  0  0  0  0  0  0  0
   52.6863   -1.7908   -6.4453 H   0  0  0  0  0  0  0  0  0  0  0  0
   52.4182   -0.8728   -7.9658 H   0  0  0  0  0  0  0  0  0  0  0  0
   52.2985   -2.6651   -7.9658 H   0  0  0  0  0  0  0  0  0  0  0  0
  1  2  1  0
  1  6  1  0
  9  1  1  0
  2  3  1  0
  2  7  2  0
  3  4  1  0
  4  5  1  0
  4  8  2  0
  5  6  2  0
  9 10  1  0
  9 14  1  0
 10 11  1  0
 10 12  1  0
 12 13  1  0
 12 15  1  0
 13 14  1  0
 13 16  1  0
 16 17  1  0
 17 18  1  0
 18 19  2  0
 18 20  1  6
 18 21  1  0
 21 22  1  0
 22 23  2  0
 22 24  1  6
 22 25  1  0
 26 25  1  0
 26 27  1  0
 26 37  1  0
 27 28  1  0
 27 32  1  0
 28 29  1  0
 29 30  2  0
 29 31  1  0
 32 33  1  0
 32 34  1  0
 33 40  1  0
 34 35  1  0
 34 36  1  0
 36 37  1  0
 36 38  1  0
 38 39  1  0
 40 41  1  0
 40 43  1  0
 41 42  2  0
 41 44  1  0
 44 45  1  0
 45 46  1  0
 45 49  1  0
 46 47  2  0
 46 48  1  0
  3 50  1  0
  5 51  1  0
  6 52  1  0
  9 53  1  6
 10 54  1  1
 11 55  1  0
 12 56  1  1
 13 57  1  6
 15 58  1  0
 16 59  1  0
 16 60  1  0
 26 61  1  1
 27 62  1  6
 28 63  1  0
 31 64  1  0
 31 65  1  0
 31 66  1  0
 32 67  1  1
 34 68  1  6
 35 69  1  0
 36 70  1  1
 38 71  1  0
 38 72  1  0
 39 73  1  0
 40 74  1  1
 43 75  1  0
 43 76  1  0
 43 77  1  0
 44 78  1  0
 45 79  1  6
 49 80  1  0
 49 81  1  0
 49 82  1  0
M  CHG  3  20  -1  24  -1  48  -1
M  END
>  <filename_input>  (18) 
8DP2_UMA_docked.sdf

>  <pdb_id>  (18) 
8DP2_UMA

>  <pose_rank>  (18) 
17

>  <num_atoms_heavy>  (18) 
49

>  <num_torsions>  (18) 
15

>  <pose>  (18) 
[58.15315203943041, -1.0627602854785287, -1.0979450540008835, -1.7975307633794986, 4.686867613743623, 1.8504359196446807, 6.611042323343807, -0.43267133481800923, 0.12760449132090937, 2.512136817873769, -0.40329627519486555, 0.33319010828662965, 3.503290869012872, -1.6505944649967825, 3.3803469666569574, 1.2784157720063494, -3.9955888987161936, 3.0511208598847355, -6.011895886662357, -1.1975151780417896, -3.7200237532959055]

>  <energy>  (18) 
-534.9516410331911

>  <inter_energy>  (18) 
-680.2878365290555

>  <intra_energy>  (18) 
152.7817691314767

>  <rmsd>  (18) 
4.05123

>  <sdf_rank>  (18) 
0

$$$$

     RDKit          3D

 82 84  0  0  0  0  0  0  0  0999 V2000
   56.6292    0.8917   -5.8582 N   0  0  0  0  0  0  0  0  0  0  0  0
   56.8323    2.0923   -5.2063 C   0  0  0  0  0  0  0  0  0  0  0  0
   56.6089    3.2100   -5.9695 N   0  0  0  0  0  0  0  0  0  0  0  0
   56.2098    3.2429   -7.2874 C   0  0  0  0  0  0  0  0  0  0  0  0
   56.0169    1.9546   -7.8950 C   0  0  0  0  0  0  0  0  0  0  0  0
   56.2293    0.8425   -7.1755 C   0  0  0  0  0  0  0  0  0  0  0  0
   57.1411    2.1630   -4.0239 O   0  0  0  0  0  0  0  0  0  0  0  0
   56.0290    4.3213   -7.8359 O   0  0  0  0  0  0  0  0  0  0  0  0
   56.8063   -0.3330   -5.0892 C   0  0  1  0  0  0  0  0  0  0  0  0
   58.2183   -0.5023   -4.5596 C   0  0  2  0  0  0  0  0  0  0  0  0
   59.1096   -0.9773   -5.5690 O   0  0  0  0  0  0  0  0  0  0  0  0
   57.9695   -1.4918   -3.4154 C   0  0  1  0  0  0  0  0  0  0  0  0
   56.5596   -1.1209   -2.9361 C   0  0  2  0  0  0  0  0  0  0  0  0
   56.0122   -0.2309   -3.9337 O   0  0  0  0  0  0  0  0  0  0  0  0
   57.9886   -2.8271   -3.9209 O   0  0  0  0  0  0  0  0  0  0  0  0
   56.4675   -0.4612   -1.5796 C   0  0  0  0  0  0  0  0  0  0  0  0
   57.2843    0.7365   -1.6077 O   0  0  0  0  0  0  0  0  0  0  0  0
   57.5543    1.6099   -0.3240 P   0  0  1  0  0  0  0  0  0  0  0  0
   57.6673    3.0312   -0.6925 O   0  0  0  0  0  0  0  0  0  0  0  0
   56.5835    1.2453    0.7787 O   0  0  0  0  0  0  0  0  0  0  0  0
   58.9688    1.0413    0.1254 O   0  0  0  0  0  0  0  0  0  0  0  0
   60.3148    1.6849    0.6567 P   0  0  2  0  0  0  0  0  0  0  0  0
   60.0587    2.4150    1.9436 O   0  0  0  0  0  0  0  0  0  0  0  0
   60.9892    2.4594   -0.4413 O   0  0  0  0  0  0  0  0  0  0  0  0
   61.2045    0.3868    1.0488 O   0  0  0  0  0  0  0  0  0  0  0  0
   62.5868    0.4266    0.8055 C   0  0  2  0  0  0  0  0  0  0  0  0
   62.9782   -0.8812    0.1340 C   0  0  2  0  0  0  0  0  0  0  0  0
   62.2157   -1.0389   -1.0946 N   0  0  0  0  0  0  0  0  0  0  0  0
   62.7696   -1.1036   -2.3102 C   0  0  0  0  0  0  0  0  0  0  0  0
   63.9802   -1.0396   -2.4770 O   0  0  0  0  0  0  0  0  0  0  0  0
   61.8182   -1.2398   -3.4625 C   0  0  0  0  0  0  0  0  0  0  0  0
   62.6948   -2.0187    1.1161 C   0  0  1  0  0  0  0  0  0  0  0  0
   63.2348   -3.2158    0.5392 O   0  0  0  0  0  0  0  0  0  0  0  0
   63.5429   -1.7696    2.3527 C   0  0  2  0  0  0  0  0  0  0  0  0
   63.3473   -2.7963    3.3191 O   0  0  0  0  0  0  0  0  0  0  0  0
   63.1900   -0.4169    2.9675 C   0  0  2  0  0  0  0  0  0  0  0  0
   63.3396    0.6364    1.9894 O   0  0  0  0  0  0  0  0  0  0  0  0
   64.1053   -0.0602    4.1221 C   0  0  0  0  0  0  0  0  0  0  0  0
   65.4843   -0.0366    3.7190 O   0  0  0  0  0  0  0  0  0  0  0  0
   62.4861   -4.4223    0.7701 C   0  0  1  0  0  0  0  0  0  0  0  0
   61.3774   -4.5310   -0.2659 C   0  0  0  0  0  0  0  0  0  0  0  0
   61.6267   -4.3507   -1.4555 O   0  0  0  0  0  0  0  0  0  0  0  0
   63.4422   -5.5867    0.6443 C   0  0  0  0  0  0  0  0  0  0  0  0
   60.1594   -4.8474    0.1931 N   0  0  0  0  0  0  0  0  0  0  0  0
   58.9904   -4.9172   -0.6712 C   0  0  2  0  0  0  0  0  0  0  0  0
   57.8050   -4.1863   -0.0621 C   0  0  0  0  0  0  0  0  0  0  0  0
   57.8440   -3.6101    1.0129 O   0  0  0  0  0  0  0  0  0  0  0  0
   56.7243   -4.2990   -0.8048 O   0  0  0  0  0  0  0  0  0  0  0  0
   58.5816   -6.3694   -0.8969 C   0  0  0  0  0  0  0  0  0  0  0  0
   56.7548    4.1196   -5.5090 H   0  0  0  0  0  0  0  0  0  0  0  0
   55.6967    1.8809   -8.9448 H   0  0  0  0  0  0  0  0  0  0  0  0
   56.0797   -0.1378   -7.6516 H   0  0  0  0  0  0  0  0  0  0  0  0
   56.5522   -1.1679   -5.7589 H   0  0  0  0  0  0  0  0  0  0  0  0
   58.7174    0.4209   -4.2299 H   0  0  0  0  0  0  0  0  0  0  0  0
   59.8979   -1.3974   -5.1421 H   0  0  0  0  0  0  0  0  0  0  0  0
   58.7233   -1.4431   -2.6159 H   0  0  0  0  0  0  0  0  0  0  0  0
   56.0037   -2.0622   -2.8139 H   0  0  0  0  0  0  0  0  0  0  0  0
   57.9978   -3.4661   -3.1648 H   0  0  0  0  0  0  0  0  0  0  0  0
   55.4222   -0.1952   -1.3640 H   0  0  0  0  0  0  0  0  0  0  0  0
   56.8219   -1.1472   -0.7962 H   0  0  0  0  0  0  0  0  0  0  0  0
   62.8138    1.2813    0.1514 H   0  0  0  0  0  0  0  0  0  0  0  0
   64.0460   -0.8894   -0.1300 H   0  0  0  0  0  0  0  0  0  0  0  0
   61.1902   -1.1046   -1.0243 H   0  0  0  0  0  0  0  0  0  0  0  0
   60.7973   -1.3859   -3.0798 H   0  0  0  0  0  0  0  0  0  0  0  0
   61.8527   -0.3276   -4.0762 H   0  0  0  0  0  0  0  0  0  0  0  0
   62.1072   -2.1057   -4.0762 H   0  0  0  0  0  0  0  0  0  0  0  0
   61.6197   -2.0889    1.3378 H   0  0  0  0  0  0  0  0  0  0  0  0
   64.5996   -1.7702    2.0470 H   0  0  0  0  0  0  0  0  0  0  0  0
   63.4206   -2.4118    4.2284 H   0  0  0  0  0  0  0  0  0  0  0  0
   62.1514   -0.5037    3.3192 H   0  0  0  0  0  0  0  0  0  0  0  0
   63.8281    0.9339    4.5029 H   0  0  0  0  0  0  0  0  0  0  0  0
   63.9889   -0.8274    4.9018 H   0  0  0  0  0  0  0  0  0  0  0  0
   66.0628   -0.0267    4.5224 H   0  0  0  0  0  0  0  0  0  0  0  0
   62.0275   -4.4191    1.7699 H   0  0  0  0  0  0  0  0  0  0  0  0
   63.7288   -5.9358    1.6473 H   0  0  0  0  0  0  0  0  0  0  0  0
   62.9526   -6.4058    0.0971 H   0  0  0  0  0  0  0  0  0  0  0  0
   64.3409   -5.2658    0.0971 H   0  0  0  0  0  0  0  0  0  0  0  0
   60.0456   -5.0492    1.1967 H   0  0  0  0  0  0  0  0  0  0  0  0
   59.2658   -4.4411   -1.6238 H   0  0  0  0  0  0  0  0  0  0  0  0
   58.4418   -6.8661    0.0746 H   0  0  0  0  0  0  0  0  0  0  0  0
   57.6396   -6.4012   -1.4640 H   0  0  0  0  0  0  0  0  0  0  0  0
   59.3687   -6.8879   -1.4640 H   0  0  0  0  0  0  0  0  0  0  0  0
  1  2  1  0
  1  6  1  0
  9  1  1  0
  2  3  1  0
  2  7  2  0
  3  4  1  0
  4  5  1  0
  4  8  2  0
  5  6  2  0
  9 10  1  0
  9 14  1  0
 10 11  1  0
 10 12  1  0
 12 13  1  0
 12 15  1  0
 13 14  1  0
 13 16  1  0
 16 17  1  0
 17 18  1  0
 18 19  2  0
 18 20  1  1
 18 21  1  0
 21 22  1  0
 22 23  2  0
 22 24  1  6
 22 25  1  0
 26 25  1  0
 26 27  1  0
 26 37  1  0
 27 28  1  0
 27 32  1  0
 28 29  1  0
 29 30  2  0
 29 31  1  0
 32 33  1  0
 32 34  1  0
 33 40  1  0
 34 35  1  0
 34 36  1  0
 36 37  1  0
 36 38  1  0
 38 39  1  0
 40 41  1  0
 40 43  1  0
 41 42  2  0
 41 44  1  0
 44 45  1  0
 45 46  1  0
 45 49  1  0
 46 47  2  0
 46 48  1  0
  3 50  1  0
  5 51  1  0
  6 52  1  0
  9 53  1  6
 10 54  1  1
 11 55  1  0
 12 56  1  1
 13 57  1  1
 15 58  1  0
 16 59  1  0
 16 60  1  0
 26 61  1  6
 27 62  1  6
 28 63  1  0
 31 64  1  0
 31 65  1  0
 31 66  1  0
 32 67  1  1
 34 68  1  6
 35 69  1  0
 36 70  1  1
 38 71  1  0
 38 72  1  0
 39 73  1  0
 40 74  1  1
 43 75  1  0
 43 76  1  0
 43 77  1  0
 44 78  1  0
 45 79  1  6
 49 80  1  0
 49 81  1  0
 49 82  1  0
M  CHG  3  20  -1  24  -1  48  -1
M  END
>  <filename_input>  (19) 
8DP2_UMA_docked.sdf

>  <pdb_id>  (19) 
8DP2_UMA

>  <pose_rank>  (19) 
18

>  <num_atoms_heavy>  (19) 
49

>  <num_torsions>  (19) 
15

>  <pose>  (19) 
[61.204478117962324, 0.3868466628204157, 1.0487852706405785, -0.4229701056248528, -3.167151313445374, -1.8673043377289955, 0.042353419871408005, 0.14545482339800575, -0.10270819962163434, -0.5929201494874647, -0.7509210294488012, -2.673513485563551, -0.7063771997838626, 0.2259755307563415, 1.1732194667313969, -1.018354112814192, -0.8637743424060204, 0.8287380222482682, 0.9144095247184788, 0.1656379500329162, -3.015361073149369]

>  <energy>  (19) 
-673.1472751865424

>  <inter_energy>  (19) 
-726.7405727577984

>  <intra_energy>  (19) 
51.67701549576782

>  <rmsd>  (19) 
9.02013

>  <sdf_rank>  (19) 
0

$$$$

     RDKit          3D

 82 84  0  0  0  0  0  0  0  0999 V2000
   57.7979    0.6702   -6.4762 N   0  0  0  0  0  0  0  0  0  0  0  0
   58.2140    1.8729   -7.0129 C   0  0  0  0  0  0  0  0  0  0  0  0
   59.5713    2.0704   -7.0069 N   0  0  0  0  0  0  0  0  0  0  0  0
   60.5292    1.2028   -6.5306 C   0  0  0  0  0  0  0  0  0  0  0  0
   60.0185   -0.0275   -5.9906 C   0  0  0  0  0  0  0  0  0  0  0  0
   58.6956   -0.2496   -5.9802 C   0  0  0  0  0  0  0  0  0  0  0  0
   57.4405    2.6853   -7.5029 O   0  0  0  0  0  0  0  0  0  0  0  0
   61.7115    1.5068   -6.6108 O   0  0  0  0  0  0  0  0  0  0  0  0
   56.3702    0.3801   -6.4939 C   0  0  1  0  0  0  0  0  0  0  0  0
   56.0494   -0.9857   -7.0720 C   0  0  2  0  0  0  0  0  0  0  0  0
   56.0917   -0.9806   -8.4993 O   0  0  0  0  0  0  0  0  0  0  0  0
   54.6549   -1.2181   -6.4790 C   0  0  1  0  0  0  0  0  0  0  0  0
   54.7245   -0.4872   -5.1314 C   0  0  2  0  0  0  0  0  0  0  0  0
   55.9328    0.3040   -5.1601 O   0  0  0  0  0  0  0  0  0  0  0  0
   53.6682   -0.6197   -7.3200 O   0  0  0  0  0  0  0  0  0  0  0  0
   54.7332   -1.3603   -3.8979 C   0  0  0  0  0  0  0  0  0  0  0  0
   53.7972   -2.4468   -4.1116 O   0  0  0  0  0  0  0  0  0  0  0  0
   54.1971   -3.9601   -3.9275 P   0  0  1  0  0  0  0  0  0  0  0  0
   53.2112   -4.8293   -4.5916 O   0  0  0  0  0  0  0  0  0  0  0  0
   55.6576   -4.1672   -4.2672 O   0  0  0  0  0  0  0  0  0  0  0  0
   54.0851   -4.1029   -2.3485 O   0  0  0  0  0  0  0  0  0  0  0  0
   55.0736   -4.5466   -1.1934 P   0  0  2  0  0  0  0  0  0  0  0  0
   55.6414   -5.9025   -1.4998 O   0  0  0  0  0  0  0  0  0  0  0  0
   54.4170   -4.3721    0.1478 O   0  0  0  0  0  0  0  0  0  0  0  0
   56.3035   -3.5011   -1.3505 O   0  0  0  0  0  0  0  0  0  0  0  0
   56.9767   -3.0831   -0.1913 C   0  0  2  0  0  0  0  0  0  0  0  0
   57.7121   -1.7927   -0.5209 C   0  0  2  0  0  0  0  0  0  0  0  0
   56.7564   -0.7978   -0.9816 N   0  0  0  0  0  0  0  0  0  0  0  0
   56.4794    0.3300   -0.3182 C   0  0  0  0  0  0  0  0  0  0  0  0
   57.0253    0.6124    0.7400 O   0  0  0  0  0  0  0  0  0  0  0  0
   55.4438    1.2223   -0.9371 C   0  0  0  0  0  0  0  0  0  0  0  0
   58.7537   -2.1053   -1.5962 C   0  0  1  0  0  0  0  0  0  0  0  0
   59.5530   -0.9259   -1.7618 O   0  0  0  0  0  0  0  0  0  0  0  0
   59.7057   -3.1385   -1.0161 C   0  0  2  0  0  0  0  0  0  0  0  0
   60.7208   -3.4784   -1.9543 O   0  0  0  0  0  0  0  0  0  0  0  0
   58.9365   -4.3967   -0.6192 C   0  0  2  0  0  0  0  0  0  0  0  0
   57.8714   -4.0678    0.3006 O   0  0  0  0  0  0  0  0  0  0  0  0
   59.8194   -5.4029    0.0925 C   0  0  0  0  0  0  0  0  0  0  0  0
   59.1946   -5.9092    1.2833 O   0  0  0  0  0  0  0  0  0  0  0  0
   59.4031    0.0866   -0.7510 C   0  0  1  0  0  0  0  0  0  0  0  0
   60.3316   -0.2250    0.4131 C   0  0  0  0  0  0  0  0  0  0  0  0
   59.9814    0.0258    1.5639 O   0  0  0  0  0  0  0  0  0  0  0  0
   59.7662    1.4151   -1.3749 C   0  0  0  0  0  0  0  0  0  0  0  0
   61.5058   -0.7918    0.1060 N   0  0  0  0  0  0  0  0  0  0  0  0
   62.5216   -1.0810    1.1074 C   0  0  2  0  0  0  0  0  0  0  0  0
   63.5586    0.0279    1.1829 C   0  0  0  0  0  0  0  0  0  0  0  0
   63.7447    0.7149    2.1742 O   0  0  0  0  0  0  0  0  0  0  0  0
   64.1866    0.1916    0.0380 O   0  0  0  0  0  0  0  0  0  0  0  0
   63.2465   -2.3800    0.7701 C   0  0  0  0  0  0  0  0  0  0  0  0
   59.9096    2.9604   -7.3997 H   0  0  0  0  0  0  0  0  0  0  0  0
   60.7090   -0.7832   -5.5879 H   0  0  0  0  0  0  0  0  0  0  0  0
   58.3163   -1.1942   -5.5633 H   0  0  0  0  0  0  0  0  0  0  0  0
   55.8941    1.1665   -7.0980 H   0  0  0  0  0  0  0  0  0  0  0  0
   56.7615   -1.7869   -6.8250 H   0  0  0  0  0  0  0  0  0  0  0  0
   57.0276   -0.8664   -8.8013 H   0  0  0  0  0  0  0  0  0  0  0  0
   54.3871   -2.2804   -6.3799 H   0  0  0  0  0  0  0  0  0  0  0  0
   53.7995    0.1005   -5.0364 H   0  0  0  0  0  0  0  0  0  0  0  0
   52.9701   -0.1963   -6.7600 H   0  0  0  0  0  0  0  0  0  0  0  0
   55.7431   -1.7643   -3.7337 H   0  0  0  0  0  0  0  0  0  0  0  0
   54.4434   -0.7746   -3.0131 H   0  0  0  0  0  0  0  0  0  0  0  0
   56.2436   -2.9171    0.6118 H   0  0  0  0  0  0  0  0  0  0  0  0
   58.2195   -1.3858    0.3661 H   0  0  0  0  0  0  0  0  0  0  0  0
   56.2647   -0.9717   -1.8697 H   0  0  0  0  0  0  0  0  0  0  0  0
   54.8668    1.7196   -0.1435 H   0  0  0  0  0  0  0  0  0  0  0  0
   55.9391    1.9812   -1.5607 H   0  0  0  0  0  0  0  0  0  0  0  0
   54.7665    0.6204   -1.5607 H   0  0  0  0  0  0  0  0  0  0  0  0
   58.2712   -2.4383   -2.5269 H   0  0  0  0  0  0  0  0  0  0  0  0
   60.1812   -2.7018   -0.1255 H   0  0  0  0  0  0  0  0  0  0  0  0
   61.5395   -3.7526   -1.4699 H   0  0  0  0  0  0  0  0  0  0  0  0
   58.5502   -4.8258   -1.5555 H   0  0  0  0  0  0  0  0  0  0  0  0
   60.0229   -6.2428   -0.5881 H   0  0  0  0  0  0  0  0  0  0  0  0
   60.7516   -4.8963    0.3830 H   0  0  0  0  0  0  0  0  0  0  0  0
   59.6521   -5.5385    2.0791 H   0  0  0  0  0  0  0  0  0  0  0  0
   58.3709    0.1190   -0.3724 H   0  0  0  0  0  0  0  0  0  0  0  0
   59.9670    2.1501   -0.5815 H   0  0  0  0  0  0  0  0  0  0  0  0
   60.6642    1.2941   -1.9985 H   0  0  0  0  0  0  0  0  0  0  0  0
   58.9314    1.7676   -1.9985 H   0  0  0  0  0  0  0  0  0  0  0  0
   61.6972   -1.0324   -0.8771 H   0  0  0  0  0  0  0  0  0  0  0  0
   62.0047   -1.1671    2.0745 H   0  0  0  0  0  0  0  0  0  0  0  0
   63.5325   -2.8925    1.7004 H   0  0  0  0  0  0  0  0  0  0  0  0
   62.5806   -3.0298    0.1833 H   0  0  0  0  0  0  0  0  0  0  0  0
   64.1492   -2.1545    0.1833 H   0  0  0  0  0  0  0  0  0  0  0  0
  1  2  1  0
  1  6  1  0
  9  1  1  0
  2  3  1  0
  2  7  2  0
  3  4  1  0
  4  5  1  0
  4  8  2  0
  5  6  2  0
  9 10  1  0
  9 14  1  0
 10 11  1  0
 10 12  1  0
 12 13  1  0
 12 15  1  0
 13 14  1  0
 13 16  1  0
 16 17  1  0
 17 18  1  0
 18 19  2  0
 18 20  1  6
 18 21  1  0
 21 22  1  0
 22 23  2  0
 22 24  1  1
 22 25  1  0
 26 25  1  0
 26 27  1  0
 26 37  1  0
 27 28  1  0
 27 32  1  0
 28 29  1  0
 29 30  2  0
 29 31  1  0
 32 33  1  0
 32 34  1  0
 33 40  1  0
 34 35  1  0
 34 36  1  0
 36 37  1  0
 36 38  1  0
 38 39  1  0
 40 41  1  0
 40 43  1  0
 41 42  2  0
 41 44  1  0
 44 45  1  0
 45 46  1  0
 45 49  1  0
 46 47  2  0
 46 48  1  0
  3 50  1  0
  5 51  1  0
  6 52  1  0
  9 53  1  6
 10 54  1  1
 11 55  1  0
 12 56  1  1
 13 57  1  1
 15 58  1  0
 16 59  1  0
 16 60  1  0
 26 61  1  1
 27 62  1  1
 28 63  1  0
 31 64  1  0
 31 65  1  0
 31 66  1  0
 32 67  1  6
 34 68  1  1
 35 69  1  0
 36 70  1  6
 38 71  1  0
 38 72  1  0
 39 73  1  0
 40 74  1  1
 43 75  1  0
 43 76  1  0
 43 77  1  0
 44 78  1  0
 45 79  1  1
 49 80  1  0
 49 81  1  0
 49 82  1  0
M  CHG  3  20  -1  24  -1  48  -1
M  END
>  <filename_input>  (20) 
8DP2_UMA_docked.sdf

>  <pdb_id>  (20) 
8DP2_UMA

>  <pose_rank>  (20) 
19

>  <num_atoms_heavy>  (20) 
49

>  <num_torsions>  (20) 
15

>  <pose>  (20) 
[56.30346386157495, -3.5011281513281927, -1.350477713349308, 0.27846317894196504, 0.3237545234667538, -2.7032155853241426, 5.857213633670804, 6.3694429489762125, 1.2076296126507187, 2.1435149679834176, -7.005560029767594, 0.25204507235378415, -0.05770666129237016, 2.259057390884775, -11.337075207243029, -3.0304800685788695, 7.1493414389020575, 0.54528026893331, -0.11883628923676524, 4.74711937372891, 0.32176861686196007]

>  <energy>  (20) 
-572.9525396989604

>  <inter_energy>  (20) 
-662.5453329100463

>  <intra_energy>  (20) 
100.55774583842296

>  <rmsd>  (20) 
9.83053

>  <sdf_rank>  (20) 
0

$$$$

     RDKit          3D

 82 84  0  0  0  0  0  0  0  0999 V2000
   57.7176   -4.0222   -1.4989 N   0  0  0  0  0  0  0  0  0  0  0  0
   57.3553   -3.9430   -0.1684 C   0  0  0  0  0  0  0  0  0  0  0  0
   57.9924   -4.8326    0.6586 N   0  0  0  0  0  0  0  0  0  0  0  0
   58.9349   -5.7687    0.2941 C   0  0  0  0  0  0  0  0  0  0  0  0
   59.2607   -5.7879   -1.1058 C   0  0  0  0  0  0  0  0  0  0  0  0
   58.6532   -4.9317   -1.9408 C   0  0  0  0  0  0  0  0  0  0  0  0
   56.5627   -3.1126    0.2565 O   0  0  0  0  0  0  0  0  0  0  0  0
   59.4355   -6.4852    1.1500 O   0  0  0  0  0  0  0  0  0  0  0  0
   57.1096   -3.0734   -2.4224 C   0  0  1  0  0  0  0  0  0  0  0  0
   55.6031   -3.2253   -2.5227 C   0  0  2  0  0  0  0  0  0  0  0  0
   55.2354   -4.3187   -3.3644 O   0  0  0  0  0  0  0  0  0  0  0  0
   55.2204   -1.8456   -3.0707 C   0  0  1  0  0  0  0  0  0  0  0  0
   56.2809   -0.9218   -2.4568 C   0  0  2  0  0  0  0  0  0  0  0  0
   57.2940   -1.7840   -1.8936 O   0  0  0  0  0  0  0  0  0  0  0  0
   55.3251   -1.8471   -4.4948 O   0  0  0  0  0  0  0  0  0  0  0  0
   55.7971    0.0352   -1.3920 C   0  0  0  0  0  0  0  0  0  0  0  0
   56.4351    1.3173   -1.6188 O   0  0  0  0  0  0  0  0  0  0  0  0
   56.9509    2.2288   -0.4411 P   0  0  1  0  0  0  0  0  0  0  0  0
   57.2849    3.5706   -0.9476 O   0  0  0  0  0  0  0  0  0  0  0  0
   56.0168    2.1388    0.7466 O   0  0  0  0  0  0  0  0  0  0  0  0
   58.2726    1.4503   -0.0251 O   0  0  0  0  0  0  0  0  0  0  0  0
   59.8163    1.8031    0.0016 P   0  0  2  0  0  0  0  0  0  0  0  0
   60.1860    2.3772    1.3389 O   0  0  0  0  0  0  0  0  0  0  0  0
   60.1853    2.6122   -1.2107 O   0  0  0  0  0  0  0  0  0  0  0  0
   60.5205    0.3439   -0.0685 O   0  0  0  0  0  0  0  0  0  0  0  0
   61.8752    0.2730   -0.4311 C   0  0  2  0  0  0  0  0  0  0  0  0
   62.1905   -1.1765   -0.7690 C   0  0  2  0  0  0  0  0  0  0  0  0
   61.3174   -1.6215   -1.8438 N   0  0  0  0  0  0  0  0  0  0  0  0
   61.6458   -1.5671   -3.1391 C   0  0  0  0  0  0  0  0  0  0  0  0
   62.7268   -1.1366   -3.5180 O   0  0  0  0  0  0  0  0  0  0  0  0
   60.6027   -2.0471   -4.1051 C   0  0  0  0  0  0  0  0  0  0  0  0
   61.9868   -2.0105    0.4966 C   0  0  1  0  0  0  0  0  0  0  0  0
   62.4597   -3.3335    0.2081 O   0  0  0  0  0  0  0  0  0  0  0  0
   62.9467   -1.4780    1.5479 C   0  0  2  0  0  0  0  0  0  0  0  0
   62.8301   -2.2121    2.7619 O   0  0  0  0  0  0  0  0  0  0  0  0
   62.6650   -0.0012    1.8162 C   0  0  2  0  0  0  0  0  0  0  0  0
   62.7351    0.7571    0.5879 O   0  0  0  0  0  0  0  0  0  0  0  0
   63.6855    0.6117    2.7549 C   0  0  0  0  0  0  0  0  0  0  0  0
   63.6182    2.0470    2.7488 O   0  0  0  0  0  0  0  0  0  0  0  0
   63.7979   -3.4273   -0.3113 C   0  0  1  0  0  0  0  0  0  0  0  0
   64.6658   -4.1964    0.6734 C   0  0  0  0  0  0  0  0  0  0  0  0
   65.8323   -3.8584    0.8602 O   0  0  0  0  0  0  0  0  0  0  0  0
   63.7267   -4.1567   -1.6338 C   0  0  0  0  0  0  0  0  0  0  0  0
   64.0815   -5.2170    1.3147 N   0  0  0  0  0  0  0  0  0  0  0  0
   64.8068   -6.0843    2.2313 C   0  0  2  0  0  0  0  0  0  0  0  0
   64.3454   -7.5277    2.1125 C   0  0  0  0  0  0  0  0  0  0  0  0
   64.5124   -8.2124    1.1162 O   0  0  0  0  0  0  0  0  0  0  0  0
   63.6987   -7.9265    3.1871 O   0  0  0  0  0  0  0  0  0  0  0  0
   64.5864   -5.6377    3.6731 C   0  0  0  0  0  0  0  0  0  0  0  0
   57.7398   -4.7970    1.6565 H   0  0  0  0  0  0  0  0  0  0  0  0
   60.0046   -6.5012   -1.4904 H   0  0  0  0  0  0  0  0  0  0  0  0
   58.9098   -4.9565   -3.0102 H   0  0  0  0  0  0  0  0  0  0  0  0
   57.5723   -3.2462   -3.4053 H   0  0  0  0  0  0  0  0  0  0  0  0
   55.0858   -3.4749   -1.5846 H   0  0  0  0  0  0  0  0  0  0  0  0
   54.9751   -5.0928   -2.8049 H   0  0  0  0  0  0  0  0  0  0  0  0
   54.1915   -1.5422   -2.8273 H   0  0  0  0  0  0  0  0  0  0  0  0
   56.6407   -0.2654   -3.2628 H   0  0  0  0  0  0  0  0  0  0  0  0
   56.2801   -1.8607   -4.7554 H   0  0  0  0  0  0  0  0  0  0  0  0
   54.7046    0.1451   -1.4574 H   0  0  0  0  0  0  0  0  0  0  0  0
   56.0504   -0.3461   -0.3918 H   0  0  0  0  0  0  0  0  0  0  0  0
   62.0499    0.9210   -1.3027 H   0  0  0  0  0  0  0  0  0  0  0  0
   63.2296   -1.2885   -1.1121 H   0  0  0  0  0  0  0  0  0  0  0  0
   60.3930   -2.0003   -1.5928 H   0  0  0  0  0  0  0  0  0  0  0  0
   59.7412   -2.4434   -3.5476 H   0  0  0  0  0  0  0  0  0  0  0  0
   60.2756   -1.2089   -4.7380 H   0  0  0  0  0  0  0  0  0  0  0  0
   61.0265   -2.8407   -4.7380 H   0  0  0  0  0  0  0  0  0  0  0  0
   60.9357   -1.9849    0.8201 H   0  0  0  0  0  0  0  0  0  0  0  0
   63.9710   -1.5931    1.1637 H   0  0  0  0  0  0  0  0  0  0  0  0
   62.9279   -1.5961    3.5307 H   0  0  0  0  0  0  0  0  0  0  0  0
   61.6620    0.0408    2.2659 H   0  0  0  0  0  0  0  0  0  0  0  0
   63.4933    0.2500    3.7758 H   0  0  0  0  0  0  0  0  0  0  0  0
   64.6879    0.3138    2.4135 H   0  0  0  0  0  0  0  0  0  0  0  0
   63.6025    2.3805    3.6808 H   0  0  0  0  0  0  0  0  0  0  0  0
   64.2379   -2.4296   -0.4558 H   0  0  0  0  0  0  0  0  0  0  0  0
   63.6213   -5.2364   -1.4518 H   0  0  0  0  0  0  0  0  0  0  0  0
   62.8596   -3.7948   -2.2058 H   0  0  0  0  0  0  0  0  0  0  0  0
   64.6474   -3.9694   -2.2058 H   0  0  0  0  0  0  0  0  0  0  0  0
   63.0800   -5.3949    1.1529 H   0  0  0  0  0  0  0  0  0  0  0  0
   65.8717   -6.0157    1.9643 H   0  0  0  0  0  0  0  0  0  0  0  0
   64.9672   -6.4093    4.3583 H   0  0  0  0  0  0  0  0  0  0  0  0
   65.1219   -4.6933    3.8503 H   0  0  0  0  0  0  0  0  0  0  0  0
   63.5111   -5.4882    3.8503 H   0  0  0  0  0  0  0  0  0  0  0  0
  1  2  1  0
  1  6  1  0
  9  1  1  0
  2  3  1  0
  2  7  2  0
  3  4  1  0
  4  5  1  0
  4  8  2  0
  5  6  2  0
  9 10  1  0
  9 14  1  0
 10 11  1  0
 10 12  1  0
 12 13  1  0
 12 15  1  0
 13 14  1  0
 13 16  1  0
 16 17  1  0
 17 18  1  0
 18 19  2  0
 18 20  1  1
 18 21  1  0
 21 22  1  0
 22 23  2  0
 22 24  1  6
 22 25  1  0
 26 25  1  0
 26 27  1  0
 26 37  1  0
 27 28  1  0
 27 32  1  0
 28 29  1  0
 29 30  2  0
 29 31  1  0
 32 33  1  0
 32 34  1  0
 33 40  1  0
 34 35  1  0
 34 36  1  0
 36 37  1  0
 36 38  1  0
 38 39  1  0
 40 41  1  0
 40 43  1  0
 41 42  2  0
 41 44  1  0
 44 45  1  0
 45 46  1  0
 45 49  1  0
 46 47  2  0
 46 48  1  0
  3 50  1  0
  5 51  1  0
  6 52  1  0
  9 53  1  6
 10 54  1  1
 11 55  1  0
 12 56  1  6
 13 57  1  6
 15 58  1  0
 16 59  1  0
 16 60  1  0
 26 61  1  6
 27 62  1  6
 28 63  1  0
 31 64  1  0
 31 65  1  0
 31 66  1  0
 32 67  1  1
 34 68  1  6
 35 69  1  0
 36 70  1  1
 38 71  1  0
 38 72  1  0
 39 73  1  0
 40 74  1  6
 43 75  1  0
 43 76  1  0
 43 77  1  0
 44 78  1  0
 45 79  1  6
 49 80  1  0
 49 81  1  0
 49 82  1  0
M  CHG  3  20  -1  24  -1  48  -1
M  END
>  <filename_input>  (21) 
8DP2_UMA_docked.sdf

>  <pdb_id>  (21) 
8DP2_UMA

>  <pose_rank>  (21) 
20

>  <num_atoms_heavy>  (21) 
49

>  <num_torsions>  (21) 
15

>  <pose>  (21) 
[60.52053441059656, 0.3439244297392483, -0.06851005273771382, -0.8565290108720456, -2.8286999123007965, -2.161966430037768, 5.7650286655570735, -0.28391901935479263, 1.7832101155169031, -3.436658416488341, -0.18586268119388752, 0.29538493162284046, -0.8690561848351755, 1.3709732659794753, 1.5190538360604962, -0.49538317898467343, -1.1998343246617673, 0.45317430630381783, 1.4846218599553158, -3.249407148902951, -3.0341127769734193]

>  <energy>  (21) 
-703.4255743253732

>  <inter_energy>  (21) 
-745.5596511548943

>  <intra_energy>  (21) 
54.37168556979348

>  <rmsd>  (21) 
8.48347

>  <sdf_rank>  (21) 
0

$$$$

     RDKit          3D

 82 84  0  0  0  0  0  0  0  0999 V2000
   64.2705   -1.4743    2.8796 N   0  0  0  0  0  0  0  0  0  0  0  0
   64.4568   -2.6626    2.2007 C   0  0  0  0  0  0  0  0  0  0  0  0
   65.4792   -3.4451    2.6739 N   0  0  0  0  0  0  0  0  0  0  0  0
   66.3110   -3.1630    3.7348 C   0  0  0  0  0  0  0  0  0  0  0  0
   66.0531   -1.9105    4.3914 C   0  0  0  0  0  0  0  0  0  0  0  0
   65.0615   -1.1218    3.9510 C   0  0  0  0  0  0  0  0  0  0  0  0
   63.7377   -3.0203    1.2769 O   0  0  0  0  0  0  0  0  0  0  0  0
   67.1715   -3.9704    4.0577 O   0  0  0  0  0  0  0  0  0  0  0  0
   63.1709   -0.6183    2.4543 C   0  0  1  0  0  0  0  0  0  0  0  0
   63.6393    0.6754    1.8143 C   0  0  2  0  0  0  0  0  0  0  0  0
   64.0416    1.6352    2.7920 O   0  0  0  0  0  0  0  0  0  0  0  0
   62.3857    1.0634    1.0218 C   0  0  1  0  0  0  0  0  0  0  0  0
   61.7793   -0.2948    0.6443 C   0  0  2  0  0  0  0  0  0  0  0  0
   62.4832   -1.2853    1.4256 O   0  0  0  0  0  0  0  0  0  0  0  0
   61.4909    1.7922    1.8627 O   0  0  0  0  0  0  0  0  0  0  0  0
   61.8497   -0.6746   -0.8167 C   0  0  0  0  0  0  0  0  0  0  0  0
   61.8293    0.5464   -1.5983 O   0  0  0  0  0  0  0  0  0  0  0  0
   60.5992    0.9616   -2.4919 P   0  0  1  0  0  0  0  0  0  0  0  0
   60.8730    2.2406   -3.1685 O   0  0  0  0  0  0  0  0  0  0  0  0
   60.1488   -0.2032   -3.3475 O   0  0  0  0  0  0  0  0  0  0  0  0
   59.4802    1.1529   -1.3797 O   0  0  0  0  0  0  0  0  0  0  0  0
   57.9017    1.2817   -1.3927 P   0  0  2  0  0  0  0  0  0  0  0  0
   57.4699    2.1565   -2.5342 O   0  0  0  0  0  0  0  0  0  0  0  0
   57.3994    1.6522   -0.0249 O   0  0  0  0  0  0  0  0  0  0  0  0
   57.4210   -0.2197   -1.7736 O   0  0  0  0  0  0  0  0  0  0  0  0
   56.0460   -0.5038   -1.7616 C   0  0  2  0  0  0  0  0  0  0  0  0
   55.8842   -2.0165   -1.7556 C   0  0  2  0  0  0  0  0  0  0  0  0
   56.5622   -2.5689   -0.5934 N   0  0  0  0  0  0  0  0  0  0  0  0
   57.8398   -2.9647   -0.5965 C   0  0  0  0  0  0  0  0  0  0  0  0
   58.5431   -2.8828   -1.5945 O   0  0  0  0  0  0  0  0  0  0  0  0
   58.3572   -3.5348    0.6915 C   0  0  0  0  0  0  0  0  0  0  0  0
   56.4763   -2.5591   -3.0569 C   0  0  1  0  0  0  0  0  0  0  0  0
   56.1541   -3.9556   -3.1147 O   0  0  0  0  0  0  0  0  0  0  0  0
   55.6964   -1.9353   -4.2028 C   0  0  2  0  0  0  0  0  0  0  0  0
   56.1786   -2.3999   -5.4589 O   0  0  0  0  0  0  0  0  0  0  0  0
   55.8068   -0.4132   -4.1457 C   0  0  2  0  0  0  0  0  0  0  0  0
   55.3629    0.0771   -2.8607 O   0  0  0  0  0  0  0  0  0  0  0  0
   54.9323    0.2604   -5.1848 C   0  0  0  0  0  0  0  0  0  0  0  0
   55.7080    1.0512   -6.0999 O   0  0  0  0  0  0  0  0  0  0  0  0
   55.5505   -4.5145   -1.9345 C   0  0  1  0  0  0  0  0  0  0  0  0
   54.0471   -4.6192   -2.1412 C   0  0  0  0  0  0  0  0  0  0  0  0
   53.2987   -4.7285   -1.1728 O   0  0  0  0  0  0  0  0  0  0  0  0
   56.1504   -5.8853   -1.7176 C   0  0  0  0  0  0  0  0  0  0  0  0
   53.6124   -4.5635   -3.4071 N   0  0  0  0  0  0  0  0  0  0  0  0
   52.2095   -4.7209   -3.7612 C   0  0  2  0  0  0  0  0  0  0  0  0
   51.8449   -6.1846   -3.9486 C   0  0  0  0  0  0  0  0  0  0  0  0
   52.1964   -6.8528   -4.9074 O   0  0  0  0  0  0  0  0  0  0  0  0
   51.0624   -6.6230   -2.9855 O   0  0  0  0  0  0  0  0  0  0  0  0
   51.9046   -3.9900   -5.0648 C   0  0  0  0  0  0  0  0  0  0  0  0
   65.6418   -4.3368    2.1848 H   0  0  0  0  0  0  0  0  0  0  0  0
   66.6659   -1.6004    5.2507 H   0  0  0  0  0  0  0  0  0  0  0  0
   64.8743   -0.1650    4.4606 H   0  0  0  0  0  0  0  0  0  0  0  0
   62.5731   -0.4002    3.3515 H   0  0  0  0  0  0  0  0  0  0  0  0
   64.5391    0.5978    1.1863 H   0  0  0  0  0  0  0  0  0  0  0  0
   63.8876    1.2677    3.6982 H   0  0  0  0  0  0  0  0  0  0  0  0
   62.5928    1.7005    0.1493 H   0  0  0  0  0  0  0  0  0  0  0  0
   60.7010   -0.2345    0.8532 H   0  0  0  0  0  0  0  0  0  0  0  0
   61.7103    1.6135    2.8114 H   0  0  0  0  0  0  0  0  0  0  0  0
   62.7793   -1.2287   -1.0140 H   0  0  0  0  0  0  0  0  0  0  0  0
   60.9974   -1.3155   -1.0865 H   0  0  0  0  0  0  0  0  0  0  0  0
   55.5940   -0.0620   -0.8613 H   0  0  0  0  0  0  0  0  0  0  0  0
   54.8240   -2.3034   -1.6938 H   0  0  0  0  0  0  0  0  0  0  0  0
   56.0278   -2.6605    0.2823 H   0  0  0  0  0  0  0  0  0  0  0  0
   57.8853   -3.0149    1.5383 H   0  0  0  0  0  0  0  0  0  0  0  0
   58.1177   -4.6073    0.7402 H   0  0  0  0  0  0  0  0  0  0  0  0
   59.4478   -3.4000    0.7402 H   0  0  0  0  0  0  0  0  0  0  0  0
   57.5566   -2.3591   -3.1116 H   0  0  0  0  0  0  0  0  0  0  0  0
   54.6422   -2.2317   -4.0987 H   0  0  0  0  0  0  0  0  0  0  0  0
   56.8835   -3.0791   -5.3110 H   0  0  0  0  0  0  0  0  0  0  0  0
   56.8654   -0.1774   -4.3298 H   0  0  0  0  0  0  0  0  0  0  0  0
   54.3918   -0.5124   -5.7510 H   0  0  0  0  0  0  0  0  0  0  0  0
   54.2318    0.9286   -4.6625 H   0  0  0  0  0  0  0  0  0  0  0  0
   56.3024    1.6573   -5.5905 H   0  0  0  0  0  0  0  0  0  0  0  0
   55.7365   -3.8798   -1.0556 H   0  0  0  0  0  0  0  0  0  0  0  0
   56.2362   -6.0815   -0.6387 H   0  0  0  0  0  0  0  0  0  0  0  0
   55.5029   -6.6460   -2.1782 H   0  0  0  0  0  0  0  0  0  0  0  0
   57.1485   -5.9259   -2.1782 H   0  0  0  0  0  0  0  0  0  0  0  0
   54.2977   -4.4029   -4.1591 H   0  0  0  0  0  0  0  0  0  0  0  0
   51.6197   -4.2982   -2.9344 H   0  0  0  0  0  0  0  0  0  0  0  0
   51.4900   -2.9963   -4.8398 H   0  0  0  0  0  0  0  0  0  0  0  0
   52.8308   -3.8776   -5.6474 H   0  0  0  0  0  0  0  0  0  0  0  0
   51.1730   -4.5692   -5.6474 H   0  0  0  0  0  0  0  0  0  0  0  0
  1  2  1  0
  1  6  1  0
  9  1  1  0
  2  3  1  0
  2  7  2  0
  3  4  1  0
  4  5  1  0
  4  8  2  0
  5  6  2  0
  9 10  1  0
  9 14  1  0
 10 11  1  0
 10 12  1  0
 12 13  1  0
 12 15  1  0
 13 14  1  0
 13 16  1  0
 16 17  1  0
 17 18  1  0
 18 19  2  0
 18 20  1  6
 18 21  1  0
 21 22  1  0
 22 23  2  0
 22 24  1  1
 22 25  1  0
 26 25  1  0
 26 27  1  0
 26 37  1  0
 27 28  1  0
 27 32  1  0
 28 29  1  0
 29 30  2  0
 29 31  1  0
 32 33  1  0
 32 34  1  0
 33 40  1  0
 34 35  1  0
 34 36  1  0
 36 37  1  0
 36 38  1  0
 38 39  1  0
 40 41  1  0
 40 43  1  0
 41 42  2  0
 41 44  1  0
 44 45  1  0
 45 46  1  0
 45 49  1  0
 46 47  2  0
 46 48  1  0
  3 50  1  0
  5 51  1  0
  6 52  1  0
  9 53  1  1
 10 54  1  6
 11 55  1  0
 12 56  1  6
 13 57  1  1
 15 58  1  0
 16 59  1  0
 16 60  1  0
 26 61  1  1
 27 62  1  1
 28 63  1  0
 31 64  1  0
 31 65  1  0
 31 66  1  0
 32 67  1  6
 34 68  1  1
 35 69  1  0
 36 70  1  6
 38 71  1  0
 38 72  1  0
 39 73  1  0
 40 74  1  1
 43 75  1  0
 43 76  1  0
 43 77  1  0
 44 78  1  0
 45 79  1  1
 49 80  1  0
 49 81  1  0
 49 82  1  0
M  CHG  3  20  -1  24  -1  48  -1
M  END
>  <filename_input>  (22) 
8DP2_UMA_docked.sdf

>  <pdb_id>  (22) 
8DP2_UMA

>  <pose_rank>  (22) 
21

>  <num_atoms_heavy>  (22) 
49

>  <num_torsions>  (22) 
15

>  <pose>  (22) 
[57.42104352885799, -0.21967238351763377, -1.773645600738078, 3.6339189797804012, 2.925615986176806, -1.311451949959981, 74.90651131268524, 2.7917770039920002, -3.1983229448577153, 8.070753902004167, 100.05861895074148, -6.31279686447946, 25.232803655159447, 11.515576454599485, -23.40742397657558, -2.8050296041131006, 18.98139875767095, 50.51515646701701, -23.116203257495958, -57.896231730657114, -29.022100107286995]

>  <energy>  (22) 
-578.2333087016182

>  <inter_energy>  (22) 
-770.096626820774

>  <intra_energy>  (22) 
196.84832805555422

>  <rmsd>  (22) 
3.86018

>  <sdf_rank>  (22) 
0

$$$$

     RDKit          3D

 82 84  0  0  0  0  0  0  0  0999 V2000
   56.8430    2.3888   -2.4525 N   0  0  0  0  0  0  0  0  0  0  0  0
   56.2320    3.6081   -2.6706 C   0  0  0  0  0  0  0  0  0  0  0  0
   56.4339    4.1414   -3.9181 N   0  0  0  0  0  0  0  0  0  0  0  0
   57.1669    3.5867   -4.9438 C   0  0  0  0  0  0  0  0  0  0  0  0
   57.7691    2.3171   -4.6412 C   0  0  0  0  0  0  0  0  0  0  0  0
   57.5920    1.7702   -3.4292 C   0  0  0  0  0  0  0  0  0  0  0  0
   55.5227    4.1551   -1.8362 O   0  0  0  0  0  0  0  0  0  0  0  0
   57.2423    4.1713   -6.0158 O   0  0  0  0  0  0  0  0  0  0  0  0
   56.6299    1.7475   -1.1617 C   0  0  1  0  0  0  0  0  0  0  0  0
   55.3473    0.9385   -1.1056 C   0  0  2  0  0  0  0  0  0  0  0  0
   54.2037    1.7709   -0.9092 O   0  0  0  0  0  0  0  0  0  0  0  0
   55.6601    0.0022    0.0673 C   0  0  1  0  0  0  0  0  0  0  0  0
   57.1792   -0.1890   -0.0367 C   0  0  2  0  0  0  0  0  0  0  0  0
   57.6487    0.7953   -0.9841 O   0  0  0  0  0  0  0  0  0  0  0  0
   55.3216    0.6424    1.2980 O   0  0  0  0  0  0  0  0  0  0  0  0
   57.6518   -1.5577   -0.4692 C   0  0  0  0  0  0  0  0  0  0  0  0
   56.5232   -2.2582   -1.0505 O   0  0  0  0  0  0  0  0  0  0  0  0
   56.6201   -3.0366   -2.4175 P   0  0  1  0  0  0  0  0  0  0  0  0
   56.5994   -4.4892   -2.1762 O   0  0  0  0  0  0  0  0  0  0  0  0
   55.6311   -2.4765   -3.4172 O   0  0  0  0  0  0  0  0  0  0  0  0
   58.0589   -2.5792   -2.9140 O   0  0  0  0  0  0  0  0  0  0  0  0
   58.9350   -2.8521   -4.2049 P   0  0  2  0  0  0  0  0  0  0  0  0
   58.2239   -2.3370   -5.4230 O   0  0  0  0  0  0  0  0  0  0  0  0
   59.3825   -4.2871   -4.2352 O   0  0  0  0  0  0  0  0  0  0  0  0
   60.2117   -1.8761   -3.9866 O   0  0  0  0  0  0  0  0  0  0  0  0
   61.4988   -2.4294   -4.0800 C   0  0  2  0  0  0  0  0  0  0  0  0
   62.0967   -2.4539   -2.6813 C   0  0  2  0  0  0  0  0  0  0  0  0
   61.2354   -3.2297   -1.8028 N   0  0  0  0  0  0  0  0  0  0  0  0
   61.4791   -4.4973   -1.4524 C   0  0  0  0  0  0  0  0  0  0  0  0
   62.4657   -5.1029   -1.8489 O   0  0  0  0  0  0  0  0  0  0  0  0
   60.4608   -5.1424   -0.5589 C   0  0  0  0  0  0  0  0  0  0  0  0
   62.2280   -1.0085   -2.1994 C   0  0  1  0  0  0  0  0  0  0  0  0
   62.9551   -1.0424   -0.9635 O   0  0  0  0  0  0  0  0  0  0  0  0
   63.1509   -0.2906   -3.1706 C   0  0  2  0  0  0  0  0  0  0  0  0
   63.3381    1.0670   -2.7856 O   0  0  0  0  0  0  0  0  0  0  0  0
   62.5716   -0.3447   -4.5826 C   0  0  2  0  0  0  0  0  0  0  0  0
   62.3324   -1.7141   -4.9777 O   0  0  0  0  0  0  0  0  0  0  0  0
   63.5225    0.2360   -5.6107 C   0  0  0  0  0  0  0  0  0  0  0  0
   64.8680   -0.2271   -5.4111 O   0  0  0  0  0  0  0  0  0  0  0  0
   62.1755   -0.8727    0.2336 C   0  0  1  0  0  0  0  0  0  0  0  0
   63.0683   -1.0803    1.4476 C   0  0  0  0  0  0  0  0  0  0  0  0
   63.1513   -0.2063    2.3073 O   0  0  0  0  0  0  0  0  0  0  0  0
   61.6176    0.5325    0.2225 C   0  0  0  0  0  0  0  0  0  0  0  0
   63.7162   -2.2505    1.5201 N   0  0  0  0  0  0  0  0  0  0  0  0
   64.6574   -2.5600    2.5863 C   0  0  2  0  0  0  0  0  0  0  0  0
   64.9781   -4.0451    2.6302 C   0  0  0  0  0  0  0  0  0  0  0  0
   65.7733   -4.5436    3.4103 O   0  0  0  0  0  0  0  0  0  0  0  0
   64.3399   -4.7132    1.6930 O   0  0  0  0  0  0  0  0  0  0  0  0
   64.0765   -2.1645    3.9401 C   0  0  0  0  0  0  0  0  0  0  0  0
   55.9910    5.0518   -4.1076 H   0  0  0  0  0  0  0  0  0  0  0  0
   58.3722    1.7966   -5.3997 H   0  0  0  0  0  0  0  0  0  0  0  0
   58.0588    0.7988   -3.2087 H   0  0  0  0  0  0  0  0  0  0  0  0
   56.6030    2.5495   -0.4094 H   0  0  0  0  0  0  0  0  0  0  0  0
   55.0826    0.4003   -2.0277 H   0  0  0  0  0  0  0  0  0  0  0  0
   54.0433    1.8877    0.0608 H   0  0  0  0  0  0  0  0  0  0  0  0
   55.1032   -0.9460    0.0378 H   0  0  0  0  0  0  0  0  0  0  0  0
   57.5878   -0.0733    0.9780 H   0  0  0  0  0  0  0  0  0  0  0  0
   55.6194    0.0792    2.0557 H   0  0  0  0  0  0  0  0  0  0  0  0
   58.4535   -1.4572   -1.2156 H   0  0  0  0  0  0  0  0  0  0  0  0
   58.0454   -2.1162    0.3929 H   0  0  0  0  0  0  0  0  0  0  0  0
   61.4250   -3.4483   -4.4879 H   0  0  0  0  0  0  0  0  0  0  0  0
   63.0900   -2.9265   -2.6810 H   0  0  0  0  0  0  0  0  0  0  0  0
   60.3892   -2.7769   -1.4290 H   0  0  0  0  0  0  0  0  0  0  0  0
   60.7337   -4.9695    0.4926 H   0  0  0  0  0  0  0  0  0  0  0  0
   59.4705   -4.7066   -0.7571 H   0  0  0  0  0  0  0  0  0  0  0  0
   60.4318   -6.2240   -0.7571 H   0  0  0  0  0  0  0  0  0  0  0  0
   61.2407   -0.5317   -2.1106 H   0  0  0  0  0  0  0  0  0  0  0  0
   64.1260   -0.7992   -3.1534 H   0  0  0  0  0  0  0  0  0  0  0  0
   63.3470    1.1316   -1.7978 H   0  0  0  0  0  0  0  0  0  0  0  0
   61.6409    0.2408   -4.5528 H   0  0  0  0  0  0  0  0  0  0  0  0
   63.1878   -0.0630   -6.6149 H   0  0  0  0  0  0  0  0  0  0  0  0
   63.5170    1.3308   -5.5032 H   0  0  0  0  0  0  0  0  0  0  0  0
   65.0544   -0.2912   -4.4409 H   0  0  0  0  0  0  0  0  0  0  0  0
   61.3538   -1.6027    0.2783 H   0  0  0  0  0  0  0  0  0  0  0  0
   61.4795    0.8803    1.2569 H   0  0  0  0  0  0  0  0  0  0  0  0
   62.3185    1.2011   -0.2987 H   0  0  0  0  0  0  0  0  0  0  0  0
   60.6490    0.5384   -0.2987 H   0  0  0  0  0  0  0  0  0  0  0  0
   63.5414   -2.9589    0.7930 H   0  0  0  0  0  0  0  0  0  0  0  0
   65.5761   -1.9916    2.3793 H   0  0  0  0  0  0  0  0  0  0  0  0
   64.6977   -2.5875    4.7433 H   0  0  0  0  0  0  0  0  0  0  0  0
   64.0619   -1.0680    4.0267 H   0  0  0  0  0  0  0  0  0  0  0  0
   63.0510   -2.5528    4.0267 H   0  0  0  0  0  0  0  0  0  0  0  0
  1  2  1  0
  1  6  1  0
  9  1  1  0
  2  3  1  0
  2  7  2  0
  3  4  1  0
  4  5  1  0
  4  8  2  0
  5  6  2  0
  9 10  1  0
  9 14  1  0
 10 11  1  0
 10 12  1  0
 12 13  1  0
 12 15  1  0
 13 14  1  0
 13 16  1  0
 16 17  1  0
 17 18  1  0
 18 19  2  0
 18 20  1  6
 18 21  1  0
 21 22  1  0
 22 23  2  0
 22 24  1  6
 22 25  1  0
 26 25  1  0
 26 27  1  0
 26 37  1  0
 27 28  1  0
 27 32  1  0
 28 29  1  0
 29 30  2  0
 29 31  1  0
 32 33  1  0
 32 34  1  0
 33 40  1  0
 34 35  1  0
 34 36  1  0
 36 37  1  0
 36 38  1  0
 38 39  1  0
 40 41  1  0
 40 43  1  0
 41 42  2  0
 41 44  1  0
 44 45  1  0
 45 46  1  0
 45 49  1  0
 46 47  2  0
 46 48  1  0
  3 50  1  0
  5 51  1  0
  6 52  1  0
  9 53  1  1
 10 54  1  6
 11 55  1  0
 12 56  1  6
 13 57  1  1
 15 58  1  0
 16 59  1  0
 16 60  1  0
 26 61  1  6
 27 62  1  6
 28 63  1  0
 31 64  1  0
 31 65  1  0
 31 66  1  0
 32 67  1  1
 34 68  1  6
 35 69  1  0
 36 70  1  1
 38 71  1  0
 38 72  1  0
 39 73  1  0
 40 74  1  6
 43 75  1  0
 43 76  1  0
 43 77  1  0
 44 78  1  0
 45 79  1  6
 49 80  1  0
 49 81  1  0
 49 82  1  0
M  CHG  3  20  -1  24  -1  48  -1
M  END
>  <filename_input>  (23) 
8DP2_UMA_docked.sdf

>  <pdb_id>  (23) 
8DP2_UMA

>  <pose_rank>  (23) 
22

>  <num_atoms_heavy>  (23) 
49

>  <num_torsions>  (23) 
15

>  <pose>  (23) 
[60.21169621545823, -1.876092063376451, -3.98659487374259, 0.6037088326797467, -2.407147877850293, 2.011796059602858, 0.4640336831237488, -0.15478054603572952, -0.3293446578439207, 0.11592888202610899, 0.817764942648407, -1.33203772369883, -1.7728953629142574, -2.9642374950702153, 0.90587936667623, -1.0064985640912967, -0.08958916424062198, -1.0227065066239256, -0.015532056803353487, -0.5534132689903523, -0.46351180765869127]

>  <energy>  (23) 
-579.981068092869

>  <inter_energy>  (23) 
-640.2519994057587

>  <intra_energy>  (23) 
57.8858354216329

>  <rmsd>  (23) 
9.5769

>  <sdf_rank>  (23) 
0

$$$$

     RDKit          3D

 82 84  0  0  0  0  0  0  0  0999 V2000
   55.4652    0.9264   -4.2246 N   0  0  0  0  0  0  0  0  0  0  0  0
   55.5624    1.9232   -3.2736 C   0  0  0  0  0  0  0  0  0  0  0  0
   55.9759    3.1405   -3.7517 N   0  0  0  0  0  0  0  0  0  0  0  0
   56.2915    3.4508   -5.0560 C   0  0  0  0  0  0  0  0  0  0  0  0
   56.1632    2.3625   -5.9863 C   0  0  0  0  0  0  0  0  0  0  0  0
   55.7629    1.1591   -5.5494 C   0  0  0  0  0  0  0  0  0  0  0  0
   55.2580    1.7544   -2.1000 O   0  0  0  0  0  0  0  0  0  0  0  0
   56.6277    4.5922   -5.3399 O   0  0  0  0  0  0  0  0  0  0  0  0
   54.9876   -0.3792   -3.7886 C   0  0  1  0  0  0  0  0  0  0  0  0
   54.9981   -1.4154   -4.8972 C   0  0  2  0  0  0  0  0  0  0  0  0
   53.8775   -1.2691   -5.7701 O   0  0  0  0  0  0  0  0  0  0  0  0
   54.9949   -2.7067   -4.0709 C   0  0  1  0  0  0  0  0  0  0  0  0
   55.7732   -2.3129   -2.8083 C   0  0  2  0  0  0  0  0  0  0  0  0
   55.9015   -0.8744   -2.8421 O   0  0  0  0  0  0  0  0  0  0  0  0
   53.6525   -3.0621   -3.7381 O   0  0  0  0  0  0  0  0  0  0  0  0
   57.1440   -2.9289   -2.6496 C   0  0  0  0  0  0  0  0  0  0  0  0
   57.8322   -2.2226   -1.5867 O   0  0  0  0  0  0  0  0  0  0  0  0
   58.0526   -2.8472   -0.1567 P   0  0  1  0  0  0  0  0  0  0  0  0
   57.4934   -1.9589    0.8761 O   0  0  0  0  0  0  0  0  0  0  0  0
   57.6247   -4.2991   -0.1410 O   0  0  0  0  0  0  0  0  0  0  0  0
   59.6401   -2.8526   -0.0807 O   0  0  0  0  0  0  0  0  0  0  0  0
   60.8069   -2.3833   -1.0433 P   0  0  2  0  0  0  0  0  0  0  0  0
   60.8742   -0.8835   -1.0711 O   0  0  0  0  0  0  0  0  0  0  0  0
   60.6995   -3.0834   -2.3695 O   0  0  0  0  0  0  0  0  0  0  0  0
   62.1394   -2.8760   -0.2610 O   0  0  0  0  0  0  0  0  0  0  0  0
   63.2375   -2.0032   -0.1975 C   0  0  2  0  0  0  0  0  0  0  0  0
   64.5006   -2.8317   -0.3789 C   0  0  2  0  0  0  0  0  0  0  0  0
   64.4380   -3.5330   -1.6516 N   0  0  0  0  0  0  0  0  0  0  0  0
   64.9899   -3.0752   -2.7806 C   0  0  0  0  0  0  0  0  0  0  0  0
   65.6032   -2.0170   -2.8216 O   0  0  0  0  0  0  0  0  0  0  0  0
   64.7970   -3.9257   -4.0016 C   0  0  0  0  0  0  0  0  0  0  0  0
   64.5949   -3.8099    0.7928 C   0  0  1  0  0  0  0  0  0  0  0  0
   65.8744   -4.4518    0.7019 O   0  0  0  0  0  0  0  0  0  0  0  0
   64.6672   -2.9835    2.0665 C   0  0  2  0  0  0  0  0  0  0  0  0
   64.7702   -3.8222    3.2120 O   0  0  0  0  0  0  0  0  0  0  0  0
   63.4271   -2.1010    2.1907 C   0  0  2  0  0  0  0  0  0  0  0  0
   63.2786   -1.2712    1.0168 O   0  0  0  0  0  0  0  0  0  0  0  0
   63.5171   -1.1559    3.3727 C   0  0  0  0  0  0  0  0  0  0  0  0
   64.6611   -0.2918    3.2759 O   0  0  0  0  0  0  0  0  0  0  0  0
   65.8555   -5.8849    0.5787 C   0  0  1  0  0  0  0  0  0  0  0  0
   66.7004   -6.4951    1.6868 C   0  0  0  0  0  0  0  0  0  0  0  0
   67.9256   -6.4125    1.6431 O   0  0  0  0  0  0  0  0  0  0  0  0
   64.4179   -6.3370    0.7011 C   0  0  0  0  0  0  0  0  0  0  0  0
   66.0360   -7.0878    2.6876 N   0  0  0  0  0  0  0  0  0  0  0  0
   66.7123   -7.7746    3.7782 C   0  0  2  0  0  0  0  0  0  0  0  0
   66.4731   -9.2746    3.7231 C   0  0  0  0  0  0  0  0  0  0  0  0
   66.3976   -9.9108    2.6844 O   0  0  0  0  0  0  0  0  0  0  0  0
   66.3025   -9.7891    4.9224 O   0  0  0  0  0  0  0  0  0  0  0  0
   66.2034   -7.2667    5.1235 C   0  0  0  0  0  0  0  0  0  0  0  0
   56.0592    3.9022   -3.0633 H   0  0  0  0  0  0  0  0  0  0  0  0
   56.3922    2.5158   -7.0512 H   0  0  0  0  0  0  0  0  0  0  0  0
   55.6697    0.3335   -6.2703 H   0  0  0  0  0  0  0  0  0  0  0  0
   53.9623   -0.2345   -3.4174 H   0  0  0  0  0  0  0  0  0  0  0  0
   55.8435   -1.3547   -5.5982 H   0  0  0  0  0  0  0  0  0  0  0  0
   53.0528   -1.1614   -5.2332 H   0  0  0  0  0  0  0  0  0  0  0  0
   55.4320   -3.5692   -4.5953 H   0  0  0  0  0  0  0  0  0  0  0  0
   55.2060   -2.6978   -1.9480 H   0  0  0  0  0  0  0  0  0  0  0  0
   53.5526   -3.0886   -2.7535 H   0  0  0  0  0  0  0  0  0  0  0  0
   57.0471   -3.9932   -2.3890 H   0  0  0  0  0  0  0  0  0  0  0  0
   57.7097   -2.8499   -3.5897 H   0  0  0  0  0  0  0  0  0  0  0  0
   63.1485   -1.2523   -0.9965 H   0  0  0  0  0  0  0  0  0  0  0  0
   65.3968   -2.1941   -0.3904 H   0  0  0  0  0  0  0  0  0  0  0  0
   63.9401   -4.4340   -1.6854 H   0  0  0  0  0  0  0  0  0  0  0  0
   64.5631   -4.9566   -3.6972 H   0  0  0  0  0  0  0  0  0  0  0  0
   63.9673   -3.5233   -4.6014 H   0  0  0  0  0  0  0  0  0  0  0  0
   65.7191   -3.9208   -4.6014 H   0  0  0  0  0  0  0  0  0  0  0  0
   63.7519   -4.5165    0.7847 H   0  0  0  0  0  0  0  0  0  0  0  0
   65.5651   -2.3505    2.0115 H   0  0  0  0  0  0  0  0  0  0  0  0
   64.7025   -3.2711    4.0316 H   0  0  0  0  0  0  0  0  0  0  0  0
   62.5764   -2.7868    2.3169 H   0  0  0  0  0  0  0  0  0  0  0  0
   62.6066   -0.5395    3.4065 H   0  0  0  0  0  0  0  0  0  0  0  0
   63.6190   -1.7588    4.2870 H   0  0  0  0  0  0  0  0  0  0  0  0
   64.9740   -0.0555    4.1850 H   0  0  0  0  0  0  0  0  0  0  0  0
   66.2689   -6.2051   -0.3891 H   0  0  0  0  0  0  0  0  0  0  0  0
   64.1494   -6.4214    1.7644 H   0  0  0  0  0  0  0  0  0  0  0  0
   63.7598   -5.6024    0.2139 H   0  0  0  0  0  0  0  0  0  0  0  0
   64.2987   -7.3160    0.2139 H   0  0  0  0  0  0  0  0  0  0  0  0
   65.0065   -7.0563    2.6853 H   0  0  0  0  0  0  0  0  0  0  0  0
   67.7876   -7.5696    3.6698 H   0  0  0  0  0  0  0  0  0  0  0  0
   66.7285   -7.7908    5.9357 H   0  0  0  0  0  0  0  0  0  0  0  0
   66.3917   -6.1859    5.2025 H   0  0  0  0  0  0  0  0  0  0  0  0
   65.1229   -7.4574    5.2025 H   0  0  0  0  0  0  0  0  0  0  0  0
  1  2  1  0
  1  6  1  0
  9  1  1  0
  2  3  1  0
  2  7  2  0
  3  4  1  0
  4  5  1  0
  4  8  2  0
  5  6  2  0
  9 10  1  0
  9 14  1  0
 10 11  1  0
 10 12  1  0
 12 13  1  0
 12 15  1  0
 13 14  1  0
 13 16  1  0
 16 17  1  0
 17 18  1  0
 18 19  2  0
 18 20  1  6
 18 21  1  0
 21 22  1  0
 22 23  2  0
 22 24  1  6
 22 25  1  0
 26 25  1  0
 26 27  1  0
 26 37  1  0
 27 28  1  0
 27 32  1  0
 28 29  1  0
 29 30  2  0
 29 31  1  0
 32 33  1  0
 32 34  1  0
 33 40  1  0
 34 35  1  0
 34 36  1  0
 36 37  1  0
 36 38  1  0
 38 39  1  0
 40 41  1  0
 40 43  1  0
 41 42  2  0
 41 44  1  0
 44 45  1  0
 45 46  1  0
 45 49  1  0
 46 47  2  0
 46 48  1  0
  3 50  1  0
  5 51  1  0
  6 52  1  0
  9 53  1  1
 10 54  1  6
 11 55  1  0
 12 56  1  6
 13 57  1  1
 15 58  1  0
 16 59  1  0
 16 60  1  0
 26 61  1  6
 27 62  1  6
 28 63  1  0
 31 64  1  0
 31 65  1  0
 31 66  1  0
 32 67  1  1
 34 68  1  6
 35 69  1  0
 36 70  1  1
 38 71  1  0
 38 72  1  0
 39 73  1  0
 40 74  1  6
 43 75  1  0
 43 76  1  0
 43 77  1  0
 44 78  1  0
 45 79  1  1
 49 80  1  0
 49 81  1  0
 49 82  1  0
M  CHG  3  20  -1  24  -1  48  -1
M  END
>  <filename_input>  (24) 
8DP2_UMA_docked.sdf

>  <pdb_id>  (24) 
8DP2_UMA

>  <pose_rank>  (24) 
23

>  <num_atoms_heavy>  (24) 
49

>  <num_torsions>  (24) 
15

>  <pose>  (24) 
[62.13937955514139, -2.8759524881838963, -0.2609727563091, 0.8569027230378735, -2.8985154678388967, -1.9176022582594334, -0.07584549065723814, -6.529252721471226, -0.08127225587170653, 12.37467444024687, 14.45127089177517, 1.5065956322730563, -0.3338248858001944, 0.8532971407109321, 2.5706366594553662, -0.8155203371071172, 3.0391899917521834, -5.061326990507636, -6.777702830304799, 8.368189118904686, 1.262304515952258]

>  <energy>  (24) 
-536.1112157975789

>  <inter_energy>  (24) 
-555.7387254431611

>  <intra_energy>  (24) 
25.26816699282946

>  <rmsd>  (24) 
10.8558

>  <sdf_rank>  (24) 
0

$$$$

     RDKit          3D

 82 84  0  0  0  0  0  0  0  0999 V2000
   56.5836   -0.3565   -3.4805 N   0  0  0  0  0  0  0  0  0  0  0  0
   56.8300   -0.6582   -4.8057 C   0  0  0  0  0  0  0  0  0  0  0  0
   56.4920   -1.9335   -5.1811 N   0  0  0  0  0  0  0  0  0  0  0  0
   55.9431   -2.9111   -4.3810 C   0  0  0  0  0  0  0  0  0  0  0  0
   55.7141   -2.5204   -3.0168 C   0  0  0  0  0  0  0  0  0  0  0  0
   56.0359   -1.2807   -2.6181 C   0  0  0  0  0  0  0  0  0  0  0  0
   57.2710    0.1594   -5.6028 O   0  0  0  0  0  0  0  0  0  0  0  0
   55.6732   -4.0029   -4.8622 O   0  0  0  0  0  0  0  0  0  0  0  0
   56.8789    0.9970   -3.0295 C   0  0  1  0  0  0  0  0  0  0  0  0
   55.7593    1.6054   -2.2055 C   0  0  2  0  0  0  0  0  0  0  0  0
   54.6955    2.0848   -3.0287 O   0  0  0  0  0  0  0  0  0  0  0  0
   56.5277    2.7018   -1.4587 C   0  0  1  0  0  0  0  0  0  0  0  0
   57.9268    2.0934   -1.2925 C   0  0  2  0  0  0  0  0  0  0  0  0
   57.9645    0.9237   -2.1394 O   0  0  0  0  0  0  0  0  0  0  0  0
   56.5891    3.8800   -2.2631 O   0  0  0  0  0  0  0  0  0  0  0  0
   58.3216    1.7008    0.1124 C   0  0  0  0  0  0  0  0  0  0  0  0
   59.6833    2.1458    0.3359 O   0  0  0  0  0  0  0  0  0  0  0  0
   60.7140    1.3236    1.1993 P   0  0  1  0  0  0  0  0  0  0  0  0
   61.7585    2.2168    1.7281 O   0  0  0  0  0  0  0  0  0  0  0  0
   59.9880    0.4318    2.1836 O   0  0  0  0  0  0  0  0  0  0  0  0
   61.3206    0.3588    0.0915 O   0  0  0  0  0  0  0  0  0  0  0  0
   61.0228   -1.1216   -0.3859 P   0  0  2  0  0  0  0  0  0  0  0  0
   61.0721   -1.1946   -1.8849 O   0  0  0  0  0  0  0  0  0  0  0  0
   59.7788   -1.6417    0.2792 O   0  0  0  0  0  0  0  0  0  0  0  0
   62.3197   -1.9386    0.1441 O   0  0  0  0  0  0  0  0  0  0  0  0
   63.4661   -1.2116    0.5028 C   0  0  2  0  0  0  0  0  0  0  0  0
   64.6817   -2.0464    0.1286 C   0  0  2  0  0  0  0  0  0  0  0  0
   64.6471   -2.3359   -1.2964 N   0  0  0  0  0  0  0  0  0  0  0  0
   64.8342   -1.4140   -2.2471 C   0  0  0  0  0  0  0  0  0  0  0  0
   65.0581   -0.2410   -1.9798 O   0  0  0  0  0  0  0  0  0  0  0  0
   64.7343   -1.8975   -3.6640 C   0  0  0  0  0  0  0  0  0  0  0  0
   64.6461   -3.3298    0.9594 C   0  0  1  0  0  0  0  0  0  0  0  0
   65.8849   -4.0146    0.7275 O   0  0  0  0  0  0  0  0  0  0  0  0
   64.6984   -2.9222    2.4228 C   0  0  2  0  0  0  0  0  0  0  0  0
   64.6819   -4.0656    3.2704 O   0  0  0  0  0  0  0  0  0  0  0  0
   63.5125   -2.0209    2.7594 C   0  0  2  0  0  0  0  0  0  0  0  0
   63.4847   -0.8741    1.8805 O   0  0  0  0  0  0  0  0  0  0  0  0
   63.5953   -1.4746    4.1712 C   0  0  0  0  0  0  0  0  0  0  0  0
   64.7751   -0.6774    4.3639 O   0  0  0  0  0  0  0  0  0  0  0  0
   65.8589   -5.4430    0.8961 C   0  0  1  0  0  0  0  0  0  0  0  0
   64.7604   -6.0315    0.0237 C   0  0  0  0  0  0  0  0  0  0  0  0
   64.8164   -5.9159   -1.1983 O   0  0  0  0  0  0  0  0  0  0  0  0
   67.2093   -5.9791    0.4779 C   0  0  0  0  0  0  0  0  0  0  0  0
   63.7754   -6.6800    0.6591 N   0  0  0  0  0  0  0  0  0  0  0  0
   62.6237   -7.2325   -0.0386 C   0  0  2  0  0  0  0  0  0  0  0  0
   61.3304   -6.5788    0.4200 C   0  0  0  0  0  0  0  0  0  0  0  0
   60.6914   -6.9495    1.3914 O   0  0  0  0  0  0  0  0  0  0  0  0
   60.9582   -5.6076   -0.3865 O   0  0  0  0  0  0  0  0  0  0  0  0
   62.5115   -8.7310    0.2234 C   0  0  0  0  0  0  0  0  0  0  0  0
   56.6670   -2.1864   -6.1641 H   0  0  0  0  0  0  0  0  0  0  0  0
   55.2771   -3.2345   -2.3033 H   0  0  0  0  0  0  0  0  0  0  0  0
   55.8573   -0.9935   -1.5714 H   0  0  0  0  0  0  0  0  0  0  0  0
   57.0541    1.6012   -3.9319 H   0  0  0  0  0  0  0  0  0  0  0  0
   55.2330    0.9131   -1.5320 H   0  0  0  0  0  0  0  0  0  0  0  0
   53.9591    2.4167   -2.4563 H   0  0  0  0  0  0  0  0  0  0  0  0
   56.0677    2.9924   -0.5027 H   0  0  0  0  0  0  0  0  0  0  0  0
   58.6514    2.8747   -1.5654 H   0  0  0  0  0  0  0  0  0  0  0  0
   56.6306    4.6774   -1.6778 H   0  0  0  0  0  0  0  0  0  0  0  0
   57.6481    2.1812    0.8374 H   0  0  0  0  0  0  0  0  0  0  0  0
   58.2502    0.6105    0.2388 H   0  0  0  0  0  0  0  0  0  0  0  0
   63.4712   -0.2547   -0.0396 H   0  0  0  0  0  0  0  0  0  0  0  0
   65.6162   -1.5057    0.3389 H   0  0  0  0  0  0  0  0  0  0  0  0
   64.4681   -3.3068   -1.5902 H   0  0  0  0  0  0  0  0  0  0  0  0
   64.5117   -2.9747   -3.6691 H   0  0  0  0  0  0  0  0  0  0  0  0
   63.9294   -1.3543   -4.1809 H   0  0  0  0  0  0  0  0  0  0  0  0
   65.6886   -1.7179   -4.1809 H   0  0  0  0  0  0  0  0  0  0  0  0
   63.7613   -3.9348    0.7119 H   0  0  0  0  0  0  0  0  0  0  0  0
   65.6368   -2.3732    2.5903 H   0  0  0  0  0  0  0  0  0  0  0  0
   64.6861   -3.7750    4.2168 H   0  0  0  0  0  0  0  0  0  0  0  0
   62.6137   -2.6449    2.6459 H   0  0  0  0  0  0  0  0  0  0  0  0
   62.7091   -0.8526    4.3654 H   0  0  0  0  0  0  0  0  0  0  0  0
   63.6392   -2.3259    4.8664 H   0  0  0  0  0  0  0  0  0  0  0  0
   64.9424   -0.5644    5.3331 H   0  0  0  0  0  0  0  0  0  0  0  0
   65.6543   -5.7151    1.9421 H   0  0  0  0  0  0  0  0  0  0  0  0
   67.8035   -6.2149    1.3731 H   0  0  0  0  0  0  0  0  0  0  0  0
   67.0722   -6.8909   -0.1219 H   0  0  0  0  0  0  0  0  0  0  0  0
   67.7349   -5.2213   -0.1219 H   0  0  0  0  0  0  0  0  0  0  0  0
   63.8354   -6.7920    1.6813 H   0  0  0  0  0  0  0  0  0  0  0  0
   62.7737   -7.0382   -1.1109 H   0  0  0  0  0  0  0  0  0  0  0  0
   62.4978   -8.9135    1.3081 H   0  0  0  0  0  0  0  0  0  0  0  0
   61.5822   -9.1129   -0.2244 H   0  0  0  0  0  0  0  0  0  0  0  0
   63.3735   -9.2471   -0.2244 H   0  0  0  0  0  0  0  0  0  0  0  0
  1  2  1  0
  1  6  1  0
  9  1  1  0
  2  3  1  0
  2  7  2  0
  3  4  1  0
  4  5  1  0
  4  8  2  0
  5  6  2  0
  9 10  1  0
  9 14  1  0
 10 11  1  0
 10 12  1  0
 12 13  1  0
 12 15  1  0
 13 14  1  0
 13 16  1  0
 16 17  1  0
 17 18  1  0
 18 19  2  0
 18 20  1  1
 18 21  1  0
 21 22  1  0
 22 23  2  0
 22 24  1  1
 22 25  1  0
 26 25  1  0
 26 27  1  0
 26 37  1  0
 27 28  1  0
 27 32  1  0
 28 29  1  0
 29 30  2  0
 29 31  1  0
 32 33  1  0
 32 34  1  0
 33 40  1  0
 34 35  1  0
 34 36  1  0
 36 37  1  0
 36 38  1  0
 38 39  1  0
 40 41  1  0
 40 43  1  0
 41 42  2  0
 41 44  1  0
 44 45  1  0
 45 46  1  0
 45 49  1  0
 46 47  2  0
 46 48  1  0
  3 50  1  0
  5 51  1  0
  6 52  1  0
  9 53  1  6
 10 54  1  1
 11 55  1  0
 12 56  1  1
 13 57  1  6
 15 58  1  0
 16 59  1  0
 16 60  1  0
 26 61  1  6
 27 62  1  6
 28 63  1  0
 31 64  1  0
 31 65  1  0
 31 66  1  0
 32 67  1  1
 34 68  1  6
 35 69  1  0
 36 70  1  1
 38 71  1  0
 38 72  1  0
 39 73  1  0
 40 74  1  1
 43 75  1  0
 43 76  1  0
 43 77  1  0
 44 78  1  0
 45 79  1  6
 49 80  1  0
 49 81  1  0
 49 82  1  0
M  CHG  3  20  -1  24  -1  48  -1
M  END
>  <filename_input>  (25) 
8DP2_UMA_docked.sdf

>  <pdb_id>  (25) 
8DP2_UMA

>  <pose_rank>  (25) 
24

>  <num_atoms_heavy>  (25) 
49

>  <num_torsions>  (25) 
15

>  <pose>  (25) 
[62.31968145462623, -1.9386343529999261, 0.14406441313018867, 0.6330331800264326, -2.632304617168703, -2.504519177953648, -0.1647719814850447, -0.6979991475738107, -0.049372357811471076, -0.7594146630898193, -1.2674783901128717, -2.414631968964981, -0.4362638050664127, -1.2817608122999777, -1.618783539944115, -5.950620746960489, 1.3477702538427878, 0.664668534409508, 1.4278453237023907, 3.072735393445474, 0.38831292544833035]

>  <energy>  (25) 
-593.838174904602

>  <inter_energy>  (25) 
-632.7093818020311

>  <intra_energy>  (25) 
37.71057139909728

>  <rmsd>  (25) 
9.62964

>  <sdf_rank>  (25) 
0

$$$$

     RDKit          3D

 82 84  0  0  0  0  0  0  0  0999 V2000
   65.6050   -1.9420    3.0610 N   0  0  0  0  0  0  0  0  0  0  0  0
   66.8290   -2.3050    3.5880 C   0  0  0  0  0  0  0  0  0  0  0  0
   67.2380   -1.5620    4.6660 N   0  0  0  0  0  0  0  0  0  0  0  0
   66.5580   -0.5190    5.2550 C   0  0  0  0  0  0  0  0  0  0  0  0
   65.2920   -0.2030    4.6520 C   0  0  0  0  0  0  0  0  0  0  0  0
   64.8650   -0.9100    3.5950 C   0  0  0  0  0  0  0  0  0  0  0  0
   67.4830   -3.2480    3.1620 O   0  0  0  0  0  0  0  0  0  0  0  0
   67.0400    0.0410    6.2300 O   0  0  0  0  0  0  0  0  0  0  0  0
   65.0930   -2.7220    1.9420 C   0  0  1  0  0  0  0  0  0  0  0  0
   63.8780   -3.5550    2.3060 C   0  0  2  0  0  0  0  0  0  0  0  0
   64.2420   -4.7470    3.0030 O   0  0  0  0  0  0  0  0  0  0  0  0
   63.2760   -3.7910    0.9160 C   0  0  1  0  0  0  0  0  0  0  0  0
   63.6530   -2.5140    0.1530 C   0  0  2  0  0  0  0  0  0  0  0  0
   64.6180   -1.8200    0.9740 O   0  0  0  0  0  0  0  0  0  0  0  0
   63.8890   -4.9310    0.3130 O   0  0  0  0  0  0  0  0  0  0  0  0
   62.5170   -1.5740   -0.1780 C   0  0  0  0  0  0  0  0  0  0  0  0
   61.7290   -1.3830    1.0240 O   0  0  0  0  0  0  0  0  0  0  0  0
   61.2470    0.0380    1.5060 P   0  0  1  0  0  0  0  0  0  0  0  0
   60.2080   -0.1030    2.5400 O   0  0  0  0  0  0  0  0  0  0  0  0
   62.4350    0.9220    1.8200 O   0  0  0  0  0  0  0  0  0  0  0  0
   60.6160    0.6050    0.1620 O   0  0  0  0  0  0  0  0  0  0  0  0
   60.0310    2.0040   -0.2950 P   0  0  2  0  0  0  0  0  0  0  0  0
   60.8290    2.5390   -1.4490 O   0  0  0  0  0  0  0  0  0  0  0  0
   59.8630    2.9100    0.8930 O   0  0  0  0  0  0  0  0  0  0  0  0
   58.5800    1.6070   -0.9010 O   0  0  0  0  0  0  0  0  0  0  0  0
   57.5440    1.2980   -0.0050 C   0  0  2  0  0  0  0  0  0  0  0  0
   56.8300    0.0610   -0.5290 C   0  0  2  0  0  0  0  0  0  0  0  0
   57.7840   -1.0300   -0.6520 N   0  0  0  0  0  0  0  0  0  0  0  0
   57.7920   -2.1040    0.1450 C   0  0  0  0  0  0  0  0  0  0  0  0
   56.9780   -2.2500    1.0470 O   0  0  0  0  0  0  0  0  0  0  0  0
   58.8710   -3.1130   -0.1180 C   0  0  0  0  0  0  0  0  0  0  0  0
   56.2080    0.4130   -1.8810 C   0  0  1  0  0  0  0  0  0  0  0  0
   55.3930   -0.7010   -2.2710 O   0  0  0  0  0  0  0  0  0  0  0  0
   55.2240    1.5470   -1.6440 C   0  0  2  0  0  0  0  0  0  0  0  0
   54.5870    1.9300   -2.8580 O   0  0  0  0  0  0  0  0  0  0  0  0
   55.9460    2.7520   -1.0450 C   0  0  2  0  0  0  0  0  0  0  0  0
   56.6370    2.3750    0.1670 O   0  0  0  0  0  0  0  0  0  0  0  0
   54.9840    3.8590   -0.6610 C   0  0  0  0  0  0  0  0  0  0  0  0
   54.0810    3.4420    0.3760 O   0  0  0  0  0  0  0  0  0  0  0  0
   55.8740   -1.4780   -3.3820 C   0  0  1  0  0  0  0  0  0  0  0  0
   55.9270   -2.9450   -2.9830 C   0  0  0  0  0  0  0  0  0  0  0  0
   56.6450   -3.7260   -3.6030 O   0  0  0  0  0  0  0  0  0  0  0  0
   54.9130   -1.2780   -4.5320 C   0  0  0  0  0  0  0  0  0  0  0  0
   55.1790   -3.3060   -1.9320 N   0  0  0  0  0  0  0  0  0  0  0  0
   55.0760   -4.6860   -1.4810 C   0  0  2  0  0  0  0  0  0  0  0  0
   53.8890   -5.3910   -2.1170 C   0  0  0  0  0  0  0  0  0  0  0  0
   53.0040   -4.8120   -2.7260 O   0  0  0  0  0  0  0  0  0  0  0  0
   53.9040   -6.6860   -1.8830 O   0  0  0  0  0  0  0  0  0  0  0  0
   54.8980   -4.7390    0.0330 C   0  0  0  0  0  0  0  0  0  0  0  0
   68.1488   -1.8099    5.0781 H   0  0  0  0  0  0  0  0  0  0  0  0
   64.6764    0.6145    5.0553 H   0  0  0  0  0  0  0  0  0  0  0  0
   63.8951   -0.6582    3.1411 H   0  0  0  0  0  0  0  0  0  0  0  0
   65.9126   -3.3759    1.6095 H   0  0  0  0  0  0  0  0  0  0  0  0
   63.1719   -3.0866    3.0074 H   0  0  0  0  0  0  0  0  0  0  0  0
   64.1931   -4.5867    3.9787 H   0  0  0  0  0  0  0  0  0  0  0  0
   62.1927   -3.9815    0.9290 H   0  0  0  0  0  0  0  0  0  0  0  0
   64.0353   -2.8277   -0.8295 H   0  0  0  0  0  0  0  0  0  0  0  0
   64.2173   -5.5416    1.0197 H   0  0  0  0  0  0  0  0  0  0  0  0
   62.9187   -0.6082   -0.5184 H   0  0  0  0  0  0  0  0  0  0  0  0
   61.8938   -1.9953   -0.9806 H   0  0  0  0  0  0  0  0  0  0  0  0
   57.9724    1.1060    0.9898 H   0  0  0  0  0  0  0  0  0  0  0  0
   56.0364   -0.2628    0.1605 H   0  0  0  0  0  0  0  0  0  0  0  0
   58.4943   -0.9722   -1.3957 H   0  0  0  0  0  0  0  0  0  0  0  0
   59.2674   -3.4837    0.8388 H   0  0  0  0  0  0  0  0  0  0  0  0
   58.4548   -3.9535   -0.6928 H   0  0  0  0  0  0  0  0  0  0  0  0
   59.6817   -2.6415   -0.6928 H   0  0  0  0  0  0  0  0  0  0  0  0
   56.9847    0.6634   -2.6186 H   0  0  0  0  0  0  0  0  0  0  0  0
   54.4567    1.1910   -0.9407 H   0  0  0  0  0  0  0  0  0  0  0  0
   53.7571    2.4290   -2.6521 H   0  0  0  0  0  0  0  0  0  0  0  0
   56.6424    3.1059   -1.8194 H   0  0  0  0  0  0  0  0  0  0  0  0
   55.5610    4.7250   -0.3044 H   0  0  0  0  0  0  0  0  0  0  0  0
   54.3895    4.1202   -1.5489 H   0  0  0  0  0  0  0  0  0  0  0  0
   54.4852    3.6286    1.2603 H   0  0  0  0  0  0  0  0  0  0  0  0
   56.8852   -1.1623   -3.6783 H   0  0  0  0  0  0  0  0  0  0  0  0
   53.9077   -1.0688   -4.1376 H   0  0  0  0  0  0  0  0  0  0  0  0
   55.2491   -0.4306   -5.1475 H   0  0  0  0  0  0  0  0  0  0  0  0
   54.8831   -2.1892   -5.1475 H   0  0  0  0  0  0  0  0  0  0  0  0
   54.6564   -2.5787   -1.4232 H   0  0  0  0  0  0  0  0  0  0  0  0
   56.0064   -5.1919   -1.7784 H   0  0  0  0  0  0  0  0  0  0  0  0
   55.8418   -4.4580    0.5232 H   0  0  0  0  0  0  0  0  0  0  0  0
   54.1056   -4.0378    0.3338 H   0  0  0  0  0  0  0  0  0  0  0  0
   54.6183   -5.7594    0.3338 H   0  0  0  0  0  0  0  0  0  0  0  0
  1  2  1  0
  1  6  1  0
  9  1  1  0
  2  3  1  0
  2  7  2  0
  3  4  1  0
  4  5  1  0
  4  8  2  0
  5  6  2  0
  9 10  1  0
  9 14  1  0
 10 11  1  0
 10 12  1  0
 12 13  1  0
 12 15  1  0
 13 14  1  0
 13 16  1  0
 16 17  1  0
 17 18  1  0
 18 19  2  0
 18 20  1  1
 18 21  1  0
 21 22  1  0
 22 23  2  0
 22 24  1  1
 22 25  1  0
 26 25  1  0
 26 27  1  0
 26 37  1  0
 27 28  1  0
 27 32  1  0
 28 29  1  0
 29 30  2  0
 29 31  1  0
 32 33  1  0
 32 34  1  0
 33 40  1  0
 34 35  1  0
 34 36  1  0
 36 37  1  0
 36 38  1  0
 38 39  1  0
 40 41  1  0
 40 43  1  0
 41 42  2  0
 41 44  1  0
 44 45  1  0
 45 46  1  0
 45 49  1  0
 46 47  2  0
 46 48  1  0
  3 50  1  0
  5 51  1  0
  6 52  1  0
  9 53  1  6
 10 54  1  1
 11 55  1  0
 12 56  1  1
 13 57  1  6
 15 58  1  0
 16 59  1  0
 16 60  1  0
 26 61  1  1
 27 62  1  1
 28 63  1  0
 31 64  1  0
 31 65  1  0
 31 66  1  0
 32 67  1  6
 34 68  1  1
 35 69  1  0
 36 70  1  6
 38 71  1  0
 38 72  1  0
 39 73  1  0
 40 74  1  6
 43 75  1  0
 43 76  1  0
 43 77  1  0
 44 78  1  0
 45 79  1  1
 49 80  1  0
 49 81  1  0
 49 82  1  0
M  CHG  3  20  -1  24  -1  48  -1
M  END
>  <filename_input>  (26) 
8DP2_UMA_docked.sdf

>  <pdb_id>  (26) 
8DP2_UMA

>  <pose_rank>  (26) 
25

>  <num_atoms_heavy>  (26) 
49

>  <num_torsions>  (26) 
15

>  <pose>  (26) 
[58.58, 1.607, -0.901, 1e-06, 1e-06, 1e-06, 0.0, 0.0, 0.0, 0.0, 0.0, 0.0, 0.0, 0.0, 0.0, 0.0, 0.0, 0.0, 0.0, 0.0, 0.0]

>  <energy>  (26) 
-928.1533447662007

>  <inter_energy>  (26) 
-940.4933423365933

>  <intra_energy>  (26) 
10.468041640226671

>  <rmsd>  (26) 
0.0

>  <sdf_rank>  (26) 
0

$$$$
