
     RDKit          3D

 15 15  0  0  0  0  0  0  0  0999 V2000
   16.3575    8.4031    7.3688 N   0  0  0  0  0  0  0  0  0  0  0  0
   16.1381    8.6779    6.0737 C   0  0  0  0  0  0  0  0  0  0  0  0
   15.0008    9.3587    5.6644 C   0  0  0  0  0  0  0  0  0  0  0  0
   14.0669    9.7278    6.6325 C   0  0  0  0  0  0  0  0  0  0  0  0
   14.3278    9.4419    7.9626 C   0  0  0  0  0  0  0  0  0  0  0  0
   15.4699    8.7648    8.3048 C   0  0  0  0  0  0  0  0  0  0  0  0
   14.8121    9.6561    4.2033 C   0  0  0  0  0  0  0  0  0  0  0  0
   13.9108   10.4567    3.8948 O   0  0  0  0  0  0  0  0  0  0  0  0
   15.5831    9.0640    3.3152 N   0  0  0  0  0  0  0  0  0  0  0  0
   16.8744    8.3571    5.3220 H   0  0  0  0  0  0  0  0  0  0  0  0
   13.1365   10.2387    6.3438 H   0  0  0  0  0  0  0  0  0  0  0  0
   13.6199    9.7577    8.7431 H   0  0  0  0  0  0  0  0  0  0  0  0
   15.6594    8.5158    9.3594 H   0  0  0  0  0  0  0  0  0  0  0  0
   15.4598    9.2627    2.3121 H   0  0  0  0  0  0  0  0  0  0  0  0
   16.3095    8.4021    3.6236 H   0  0  0  0  0  0  0  0  0  0  0  0
  1  2  2  0
  1  6  1  0
  2  3  1  0
  3  4  2  0
  3  7  1  0
  4  5  1  0
  5  6  2  0
  7  8  2  0
  7  9  1  0
  2 10  1  0
  4 11  1  0
  5 12  1  0
  6 13  1  0
  9 14  1  0
  9 15  1  0
M  END
>  <filename_input>  (1) 
8DSC_NCA_docked.sdf

>  <pdb_id>  (1) 
8DSC_NCA

>  <pose_rank>  (1) 
0

>  <num_atoms_heavy>  (1) 
9

>  <num_torsions>  (1) 
1

>  <pose>  (1) 
[16.357531654578214, 8.403052905406451, 7.368786373373983, -0.03570723807094557, -0.3922074460184851, 3.1588948411357056, -2.881752056701424]

>  <energy>  (1) 
-628.495100771772

>  <inter_energy>  (1) 
-614.2364117314614

>  <intra_energy>  (1) 
0.0

>  <rmsd>  (1) 
1.7055

>  <sdf_rank>  (1) 
0

$$$$

     RDKit          3D

 15 15  0  0  0  0  0  0  0  0999 V2000
   14.2099    9.4466    7.9510 N   0  0  0  0  0  0  0  0  0  0  0  0
   14.0750    9.7425    6.6490 C   0  0  0  0  0  0  0  0  0  0  0  0
   15.0204    9.3395    5.7170 C   0  0  0  0  0  0  0  0  0  0  0  0
   16.1393    8.6408    6.1699 C   0  0  0  0  0  0  0  0  0  0  0  0
   16.2438    8.3388    7.5179 C   0  0  0  0  0  0  0  0  0  0  0  0
   15.2767    8.7660    8.3909 C   0  0  0  0  0  0  0  0  0  0  0  0
   14.8123    9.6825    4.2686 C   0  0  0  0  0  0  0  0  0  0  0  0
   13.8378   10.4029    3.9861 O   0  0  0  0  0  0  0  0  0  0  0  0
   15.6440    9.2104    3.3635 N   0  0  0  0  0  0  0  0  0  0  0  0
   13.1978   10.3156    6.3143 H   0  0  0  0  0  0  0  0  0  0  0  0
   16.9277    8.3340    5.4668 H   0  0  0  0  0  0  0  0  0  0  0  0
   17.1013    7.7571    7.8872 H   0  0  0  0  0  0  0  0  0  0  0  0
   15.3779    8.5475    9.4643 H   0  0  0  0  0  0  0  0  0  0  0  0
   15.5080    9.4411    2.3689 H   0  0  0  0  0  0  0  0  0  0  0  0
   16.4307    8.6105    3.6500 H   0  0  0  0  0  0  0  0  0  0  0  0
  1  2  2  0
  1  6  1  0
  2  3  1  0
  3  4  2  0
  3  7  1  0
  4  5  1  0
  5  6  2  0
  7  8  2  0
  7  9  1  0
  2 10  1  0
  4 11  1  0
  5 12  1  0
  6 13  1  0
  9 14  1  0
  9 15  1  0
M  END
>  <filename_input>  (2) 
8DSC_NCA_docked.sdf

>  <pdb_id>  (2) 
8DSC_NCA

>  <pose_rank>  (2) 
1

>  <num_atoms_heavy>  (2) 
9

>  <num_torsions>  (2) 
1

>  <pose>  (2) 
[14.209896089384593, 9.446558788324088, 7.950985352464587, -3.30257411779533, -4.818510015400426, -1.0768458864811512, -6.143376133478799]

>  <energy>  (2) 
-588.2312325494174

>  <inter_energy>  (2) 
-581.9808346083374

>  <intra_energy>  (2) 
0.0

>  <rmsd>  (2) 
0.705662

>  <sdf_rank>  (2) 
0

$$$$

     RDKit          3D

 15 15  0  0  0  0  0  0  0  0999 V2000
   15.8478    8.1652    7.7093 N   0  0  0  0  0  0  0  0  0  0  0  0
   15.8246    8.3322    6.3779 C   0  0  0  0  0  0  0  0  0  0  0  0
   15.0481    9.3197    5.7892 C   0  0  0  0  0  0  0  0  0  0  0  0
   14.2614   10.1223    6.6151 C   0  0  0  0  0  0  0  0  0  0  0  0
   14.3168    9.9346    7.9866 C   0  0  0  0  0  0  0  0  0  0  0  0
   15.1031    8.9403    8.5090 C   0  0  0  0  0  0  0  0  0  0  0  0
   15.0718    9.4751    4.2945 C   0  0  0  0  0  0  0  0  0  0  0  0
   15.6888    8.6151    3.6402 O   0  0  0  0  0  0  0  0  0  0  0  0
   14.4609   10.5005    3.7384 N   0  0  0  0  0  0  0  0  0  0  0  0
   16.4332    7.6734    5.7411 H   0  0  0  0  0  0  0  0  0  0  0  0
   13.6062   10.8935    6.1837 H   0  0  0  0  0  0  0  0  0  0  0  0
   13.7309   10.5823    8.6553 H   0  0  0  0  0  0  0  0  0  0  0  0
   15.1227    8.7771    9.5967 H   0  0  0  0  0  0  0  0  0  0  0  0
   14.4728   10.6138    2.7147 H   0  0  0  0  0  0  0  0  0  0  0  0
   13.9712   11.1894    4.3271 H   0  0  0  0  0  0  0  0  0  0  0  0
  1  2  2  0
  1  6  1  0
  2  3  1  0
  3  4  2  0
  3  7  1  0
  4  5  1  0
  5  6  2  0
  7  8  2  0
  7  9  1  0
  2 10  1  0
  4 11  1  0
  5 12  1  0
  6 13  1  0
  9 14  1  0
  9 15  1  0
M  END
>  <filename_input>  (3) 
8DSC_NCA_docked.sdf

>  <pdb_id>  (3) 
8DSC_NCA

>  <pose_rank>  (3) 
2

>  <num_atoms_heavy>  (3) 
9

>  <num_torsions>  (3) 
1

>  <pose>  (3) 
[15.847794735424332, 8.165247278034766, 7.709252785213338, -0.21219884211652118, -0.17344120496235937, 2.8084341163221054, 0.17573901204828543]

>  <energy>  (3) 
-580.9493038688112

>  <inter_energy>  (3) 
-559.7338113862118

>  <intra_energy>  (3) 
0.0

>  <rmsd>  (3) 
1.9024

>  <sdf_rank>  (3) 
0

$$$$

     RDKit          3D

 15 15  0  0  0  0  0  0  0  0999 V2000
   13.8191    9.8162    7.8587 N   0  0  0  0  0  0  0  0  0  0  0  0
   13.9985    9.8801    6.5303 C   0  0  0  0  0  0  0  0  0  0  0  0
   15.0366    9.2001    5.9101 C   0  0  0  0  0  0  0  0  0  0  0  0
   15.9159    8.4669    6.7068 C   0  0  0  0  0  0  0  0  0  0  0  0
   15.6968    8.4092    8.0735 C   0  0  0  0  0  0  0  0  0  0  0  0
   14.6535    9.1046    8.6283 C   0  0  0  0  0  0  0  0  0  0  0  0
   15.1824    9.2916    4.4170 C   0  0  0  0  0  0  0  0  0  0  0  0
   15.8416    8.4005    3.8515 O   0  0  0  0  0  0  0  0  0  0  0  0
   14.6287   10.2964    3.7709 N   0  0  0  0  0  0  0  0  0  0  0  0
   13.3092   10.4834    5.9214 H   0  0  0  0  0  0  0  0  0  0  0  0
   16.7712    7.9420    6.2563 H   0  0  0  0  0  0  0  0  0  0  0  0
   16.3589    7.8064    8.7125 H   0  0  0  0  0  0  0  0  0  0  0  0
   14.4999    9.0780    9.7172 H   0  0  0  0  0  0  0  0  0  0  0  0
   14.7242   10.3660    2.7477 H   0  0  0  0  0  0  0  0  0  0  0  0
   14.1000   11.0129    4.2886 H   0  0  0  0  0  0  0  0  0  0  0  0
  1  2  2  0
  1  6  1  0
  2  3  1  0
  3  4  2  0
  3  7  1  0
  4  5  1  0
  5  6  2  0
  7  8  2  0
  7  9  1  0
  2 10  1  0
  4 11  1  0
  5 12  1  0
  6 13  1  0
  9 14  1  0
  9 15  1  0
M  END
>  <filename_input>  (4) 
8DSC_NCA_docked.sdf

>  <pdb_id>  (4) 
8DSC_NCA

>  <pose_rank>  (4) 
3

>  <num_atoms_heavy>  (4) 
9

>  <num_torsions>  (4) 
1

>  <pose>  (4) 
[13.819111352790156, 9.816204408109439, 7.858690509589657, 0.031082215071109687, 0.05194362359187359, -0.08158061421644615, -2.7333877543956593]

>  <energy>  (4) 
-512.2009005458617

>  <inter_energy>  (4) 
-513.8356817700206

>  <intra_energy>  (4) 
0.0

>  <rmsd>  (4) 
1.05475

>  <sdf_rank>  (4) 
0

$$$$

     RDKit          3D

 15 15  0  0  0  0  0  0  0  0999 V2000
   13.5638   10.4023    7.4451 N   0  0  0  0  0  0  0  0  0  0  0  0
   13.8839   10.2060    6.1567 C   0  0  0  0  0  0  0  0  0  0  0  0
   14.9382    9.3804    5.7941 C   0  0  0  0  0  0  0  0  0  0  0  0
   15.6844    8.7777    6.8067 C   0  0  0  0  0  0  0  0  0  0  0  0
   15.3214    8.9888    8.1268 C   0  0  0  0  0  0  0  0  0  0  0  0
   14.2695    9.8173    8.4221 C   0  0  0  0  0  0  0  0  0  0  0  0
   15.2437    9.1814    4.3361 C   0  0  0  0  0  0  0  0  0  0  0  0
   16.0139    8.2514    4.0352 O   0  0  0  0  0  0  0  0  0  0  0  0
   14.7064    9.9873    3.4441 N   0  0  0  0  0  0  0  0  0  0  0  0
   13.2989   10.7095    5.3729 H   0  0  0  0  0  0  0  0  0  0  0  0
   16.5490    8.1436    6.5605 H   0  0  0  0  0  0  0  0  0  0  0  0
   15.8760    8.4926    8.9368 H   0  0  0  0  0  0  0  0  0  0  0  0
   14.0022   10.0037    9.4728 H   0  0  0  0  0  0  0  0  0  0  0  0
   14.9110    9.8572    2.4430 H   0  0  0  0  0  0  0  0  0  0  0  0
   14.0815   10.7478    3.7474 H   0  0  0  0  0  0  0  0  0  0  0  0
  1  2  2  0
  1  6  1  0
  2  3  1  0
  3  4  2  0
  3  7  1  0
  4  5  1  0
  5  6  2  0
  7  8  2  0
  7  9  1  0
  2 10  1  0
  4 11  1  0
  5 12  1  0
  6 13  1  0
  9 14  1  0
  9 15  1  0
M  END
>  <filename_input>  (5) 
8DSC_NCA_docked.sdf

>  <pdb_id>  (5) 
8DSC_NCA

>  <pose_rank>  (5) 
4

>  <num_atoms_heavy>  (5) 
9

>  <num_torsions>  (5) 
1

>  <pose>  (5) 
[13.563776724182908, 10.402254385032595, 7.445083322505559, 4.3169208049774905, 1.8866135237924437, 3.8277934454517215, 3.427306386359919]

>  <energy>  (5) 
-528.721803709508

>  <inter_energy>  (5) 
-519.6259077268545

>  <intra_energy>  (5) 
0.0

>  <rmsd>  (5) 
1.09718

>  <sdf_rank>  (5) 
0

$$$$

     RDKit          3D

 15 15  0  0  0  0  0  0  0  0999 V2000
   16.7666    8.2988    6.8519 N   0  0  0  0  0  0  0  0  0  0  0  0
   16.1284    8.7555    5.7633 C   0  0  0  0  0  0  0  0  0  0  0  0
   14.8808    9.3547    5.8581 C   0  0  0  0  0  0  0  0  0  0  0  0
   14.2849    9.4457    7.1159 C   0  0  0  0  0  0  0  0  0  0  0  0
   14.9742    8.9773    8.2225 C   0  0  0  0  0  0  0  0  0  0  0  0
   16.2046    8.3933    8.0644 C   0  0  0  0  0  0  0  0  0  0  0  0
   14.2172    9.8645    4.6097 C   0  0  0  0  0  0  0  0  0  0  0  0
   12.9730    9.8729    4.5864 O   0  0  0  0  0  0  0  0  0  0  0  0
   14.9582   10.2671    3.5984 N   0  0  0  0  0  0  0  0  0  0  0  0
   16.6038    8.6527    4.7767 H   0  0  0  0  0  0  0  0  0  0  0  0
   13.2818    9.8831    7.2276 H   0  0  0  0  0  0  0  0  0  0  0  0
   14.5351    9.0737    9.2264 H   0  0  0  0  0  0  0  0  0  0  0  0
   16.7361    7.9980    8.9426 H   0  0  0  0  0  0  0  0  0  0  0  0
   14.5107   10.6177    2.7395 H   0  0  0  0  0  0  0  0  0  0  0  0
   15.9853   10.2313    3.6662 H   0  0  0  0  0  0  0  0  0  0  0  0
  1  2  2  0
  1  6  1  0
  2  3  1  0
  3  4  2  0
  3  7  1  0
  4  5  1  0
  5  6  2  0
  7  8  2  0
  7  9  1  0
  2 10  1  0
  4 11  1  0
  5 12  1  0
  6 13  1  0
  9 14  1  0
  9 15  1  0
M  END
>  <filename_input>  (6) 
8DSC_NCA_docked.sdf

>  <pdb_id>  (6) 
8DSC_NCA

>  <pose_rank>  (6) 
5

>  <num_atoms_heavy>  (6) 
9

>  <num_torsions>  (6) 
1

>  <pose>  (6) 
[16.766612904195483, 8.298789108473198, 6.85190273950374, 0.48524352692585127, -0.6969965769311404, 3.1185224690128153, 8.965911522885047]

>  <energy>  (6) 
-553.0626567322496

>  <inter_energy>  (6) 
-553.1706848173451

>  <intra_energy>  (6) 
0.0

>  <rmsd>  (6) 
1.99203

>  <sdf_rank>  (6) 
0

$$$$

     RDKit          3D

 15 15  0  0  0  0  0  0  0  0999 V2000
   13.2298   10.1525    8.0394 N   0  0  0  0  0  0  0  0  0  0  0  0
   13.4688   10.1890    6.7194 C   0  0  0  0  0  0  0  0  0  0  0  0
   14.5873    9.5769    6.1727 C   0  0  0  0  0  0  0  0  0  0  0  0
   15.4822    8.9435    7.0348 C   0  0  0  0  0  0  0  0  0  0  0  0
   15.2013    8.9110    8.3910 C   0  0  0  0  0  0  0  0  0  0  0  0
   14.0795    9.5360    8.8717 C   0  0  0  0  0  0  0  0  0  0  0  0
   14.7986    9.6331    4.6857 C   0  0  0  0  0  0  0  0  0  0  0  0
   14.0798   10.4134    4.0353 O   0  0  0  0  0  0  0  0  0  0  0  0
   15.7108    8.8632    4.1299 N   0  0  0  0  0  0  0  0  0  0  0  0
   12.7641   10.7145    6.0581 H   0  0  0  0  0  0  0  0  0  0  0  0
   16.3979    8.4763    6.6435 H   0  0  0  0  0  0  0  0  0  0  0  0
   15.8772    8.3847    9.0811 H   0  0  0  0  0  0  0  0  0  0  0  0
   13.8751    9.5311    9.9525 H   0  0  0  0  0  0  0  0  0  0  0  0
   15.8614    8.8961    3.1115 H   0  0  0  0  0  0  0  0  0  0  0  0
   16.2737    8.2280    4.7135 H   0  0  0  0  0  0  0  0  0  0  0  0
  1  2  2  0
  1  6  1  0
  2  3  1  0
  3  4  2  0
  3  7  1  0
  4  5  1  0
  5  6  2  0
  7  8  2  0
  7  9  1  0
  2 10  1  0
  4 11  1  0
  5 12  1  0
  6 13  1  0
  9 14  1  0
  9 15  1  0
M  END
>  <filename_input>  (7) 
8DSC_NCA_docked.sdf

>  <pdb_id>  (7) 
8DSC_NCA

>  <pose_rank>  (7) 
6

>  <num_atoms_heavy>  (7) 
9

>  <num_torsions>  (7) 
1

>  <pose>  (7) 
[13.229779422585231, 10.15246740689089, 8.039428208904301, 3.385478575813715, -5.209461633986671, 0.905910466557903, 6.537515703607004]

>  <energy>  (7) 
-511.8144776653465

>  <inter_energy>  (7) 
-507.3381857171779

>  <intra_energy>  (7) 
0.0

>  <rmsd>  (7) 
0.586946

>  <sdf_rank>  (7) 
0

$$$$

     RDKit          3D

 15 15  0  0  0  0  0  0  0  0999 V2000
   16.0392    8.4675    5.4295 N   0  0  0  0  0  0  0  0  0  0  0  0
   15.6366    8.7691    6.6737 C   0  0  0  0  0  0  0  0  0  0  0  0
   14.5589    9.6136    6.8972 C   0  0  0  0  0  0  0  0  0  0  0  0
   13.9161   10.1718    5.7924 C   0  0  0  0  0  0  0  0  0  0  0  0
   14.3462    9.8310    4.5204 C   0  0  0  0  0  0  0  0  0  0  0  0
   15.4189    8.9914    4.3639 C   0  0  0  0  0  0  0  0  0  0  0  0
   14.1385    9.9050    8.3104 C   0  0  0  0  0  0  0  0  0  0  0  0
   13.4440   10.9196    8.5024 O   0  0  0  0  0  0  0  0  0  0  0  0
   14.5199    9.1003    9.2804 N   0  0  0  0  0  0  0  0  0  0  0  0
   16.1716    8.3384    7.5329 H   0  0  0  0  0  0  0  0  0  0  0  0
   13.0795   10.8728    5.9291 H   0  0  0  0  0  0  0  0  0  0  0  0
   13.8280   10.2332    3.6374 H   0  0  0  0  0  0  0  0  0  0  0  0
   15.7741    8.7454    3.3523 H   0  0  0  0  0  0  0  0  0  0  0  0
   14.2358    9.2935   10.2515 H   0  0  0  0  0  0  0  0  0  0  0  0
   15.1023    8.2777    9.0682 H   0  0  0  0  0  0  0  0  0  0  0  0
  1  2  2  0
  1  6  1  0
  2  3  1  0
  3  4  2  0
  3  7  1  0
  4  5  1  0
  5  6  2  0
  7  8  2  0
  7  9  1  0
  2 10  1  0
  4 11  1  0
  5 12  1  0
  6 13  1  0
  9 14  1  0
  9 15  1  0
M  END
>  <filename_input>  (8) 
8DSC_NCA_docked.sdf

>  <pdb_id>  (8) 
8DSC_NCA

>  <pose_rank>  (8) 
7

>  <num_atoms_heavy>  (8) 
9

>  <num_torsions>  (8) 
1

>  <pose>  (8) 
[16.039174899633668, 8.467457046968368, 5.429523982841741, 1.6328461341860832, 2.3791340867893993, 0.16904075434602972, 2.8513108232931126]

>  <energy>  (8) 
-429.1937286807284

>  <inter_energy>  (8) 
-442.99403805598575

>  <intra_energy>  (8) 
0.0

>  <rmsd>  (8) 
3.86805

>  <sdf_rank>  (8) 
0

$$$$

     RDKit          3D

 15 15  0  0  0  0  0  0  0  0999 V2000
   15.6775    8.5055    7.2974 N   0  0  0  0  0  0  0  0  0  0  0  0
   15.5842    8.7032    5.9733 C   0  0  0  0  0  0  0  0  0  0  0  0
   14.5507    9.4508    5.4277 C   0  0  0  0  0  0  0  0  0  0  0  0
   13.5851    9.9714    6.2891 C   0  0  0  0  0  0  0  0  0  0  0  0
   13.7159    9.7615    7.6521 C   0  0  0  0  0  0  0  0  0  0  0  0
   14.7595    9.0123    8.1312 C   0  0  0  0  0  0  0  0  0  0  0  0
   14.5026    9.6561    3.9396 C   0  0  0  0  0  0  0  0  0  0  0  0
   13.4204   10.0243    3.4482 O   0  0  0  0  0  0  0  0  0  0  0  0
   15.5815    9.4337    3.2182 N   0  0  0  0  0  0  0  0  0  0  0  0
   16.3419    8.2640    5.3077 H   0  0  0  0  0  0  0  0  0  0  0  0
   12.7317   10.5406    5.8916 H   0  0  0  0  0  0  0  0  0  0  0  0
   12.9836   10.1953    8.3490 H   0  0  0  0  0  0  0  0  0  0  0  0
   14.8439    8.8253    9.2119 H   0  0  0  0  0  0  0  0  0  0  0  0
   15.5563    9.5722    2.1979 H   0  0  0  0  0  0  0  0  0  0  0  0
   16.4506    9.1213    3.6742 H   0  0  0  0  0  0  0  0  0  0  0  0
  1  2  2  0
  1  6  1  0
  2  3  1  0
  3  4  2  0
  3  7  1  0
  4  5  1  0
  5  6  2  0
  7  8  2  0
  7  9  1  0
  2 10  1  0
  4 11  1  0
  5 12  1  0
  6 13  1  0
  9 14  1  0
  9 15  1  0
M  END
>  <filename_input>  (9) 
8DSC_NCA_docked.sdf

>  <pdb_id>  (9) 
8DSC_NCA

>  <pose_rank>  (9) 
8

>  <num_atoms_heavy>  (9) 
9

>  <num_torsions>  (9) 
1

>  <pose>  (9) 
[15.677510771000934, 8.505461290118717, 7.297379596729966, -0.172325858433128, -0.26984366724801323, 3.085962424720102, 9.166745174802525]

>  <energy>  (9) 
-534.2666045584244

>  <inter_energy>  (9) 
-541.2394575888428

>  <intra_energy>  (9) 
0.0

>  <rmsd>  (9) 
1.71946

>  <sdf_rank>  (9) 
0

$$$$

     RDKit          3D

 15 15  0  0  0  0  0  0  0  0999 V2000
   16.0204    8.4259    3.5596 N   0  0  0  0  0  0  0  0  0  0  0  0
   15.9873    8.2870    4.8939 C   0  0  0  0  0  0  0  0  0  0  0  0
   15.1417    9.0586    5.6777 C   0  0  0  0  0  0  0  0  0  0  0  0
   14.3420   10.0116    5.0471 C   0  0  0  0  0  0  0  0  0  0  0  0
   14.3886   10.1222    3.6670 C   0  0  0  0  0  0  0  0  0  0  0  0
   15.2465    9.3316    2.9466 C   0  0  0  0  0  0  0  0  0  0  0  0
   15.1315    8.8509    7.1662 C   0  0  0  0  0  0  0  0  0  0  0  0
   14.2048    9.3753    7.8101 O   0  0  0  0  0  0  0  0  0  0  0  0
   16.0894    8.1448    7.7300 N   0  0  0  0  0  0  0  0  0  0  0  0
   16.6433    7.5470    5.3756 H   0  0  0  0  0  0  0  0  0  0  0  0
   13.6836   10.6660    5.6372 H   0  0  0  0  0  0  0  0  0  0  0  0
   13.7383   10.8431    3.1499 H   0  0  0  0  0  0  0  0  0  0  0  0
   15.3000    9.4422    1.8535 H   0  0  0  0  0  0  0  0  0  0  0  0
   16.0891    7.9981    8.7495 H   0  0  0  0  0  0  0  0  0  0  0  0
   16.8388    7.7392    7.1515 H   0  0  0  0  0  0  0  0  0  0  0  0
  1  2  2  0
  1  6  1  0
  2  3  1  0
  3  4  2  0
  3  7  1  0
  4  5  1  0
  5  6  2  0
  7  8  2  0
  7  9  1  0
  2 10  1  0
  4 11  1  0
  5 12  1  0
  6 13  1  0
  9 14  1  0
  9 15  1  0
M  END
>  <filename_input>  (10) 
8DSC_NCA_docked.sdf

>  <pdb_id>  (10) 
8DSC_NCA

>  <pose_rank>  (10) 
9

>  <num_atoms_heavy>  (10) 
9

>  <num_torsions>  (10) 
1

>  <pose>  (10) 
[16.020388938001474, 8.425892094638252, 3.5595661589059935, 2.0613970702900013, 2.5612903723793763, 0.38797394139465746, -2.869445691668496]

>  <energy>  (10) 
-486.76511192963494

>  <inter_energy>  (10) 
-459.04508958923043

>  <intra_energy>  (10) 
0.0

>  <rmsd>  (10) 
3.91378

>  <sdf_rank>  (10) 
0

$$$$

     RDKit          3D

 15 15  0  0  0  0  0  0  0  0999 V2000
   15.6405    8.5745    8.1437 N   0  0  0  0  0  0  0  0  0  0  0  0
   15.7709    8.6732    6.8117 C   0  0  0  0  0  0  0  0  0  0  0  0
   14.9817    9.5429    6.0732 C   0  0  0  0  0  0  0  0  0  0  0  0
   14.0203   10.2968    6.7462 C   0  0  0  0  0  0  0  0  0  0  0  0
   13.9187   10.1828    8.1231 C   0  0  0  0  0  0  0  0  0  0  0  0
   14.7267    9.3041    8.7976 C   0  0  0  0  0  0  0  0  0  0  0  0
   15.1802    9.6272    4.5858 C   0  0  0  0  0  0  0  0  0  0  0  0
   14.2865   10.1812    3.9203 O   0  0  0  0  0  0  0  0  0  0  0  0
   16.2654    9.1132    4.0453 N   0  0  0  0  0  0  0  0  0  0  0  0
   16.5180    8.0525    6.2955 H   0  0  0  0  0  0  0  0  0  0  0  0
   13.3523   10.9721    6.1916 H   0  0  0  0  0  0  0  0  0  0  0  0
   13.1910   10.7964    8.6744 H   0  0  0  0  0  0  0  0  0  0  0  0
   14.6235    9.1970    9.8875 H   0  0  0  0  0  0  0  0  0  0  0  0
   16.4085    9.1670    3.0267 H   0  0  0  0  0  0  0  0  0  0  0  0
   16.9711    8.6573    4.6412 H   0  0  0  0  0  0  0  0  0  0  0  0
  1  2  2  0
  1  6  1  0
  2  3  1  0
  3  4  2  0
  3  7  1  0
  4  5  1  0
  5  6  2  0
  7  8  2  0
  7  9  1  0
  2 10  1  0
  4 11  1  0
  5 12  1  0
  6 13  1  0
  9 14  1  0
  9 15  1  0
M  END
>  <filename_input>  (11) 
8DSC_NCA_docked.sdf

>  <pdb_id>  (11) 
8DSC_NCA

>  <pose_rank>  (11) 
10

>  <num_atoms_heavy>  (11) 
9

>  <num_torsions>  (11) 
1

>  <pose>  (11) 
[15.640504979286398, 8.57452054100109, 8.143700354996506, -0.403652319274081, -0.13909349795523387, 2.9056833464051532, 9.210545725433258]

>  <energy>  (11) 
-542.3262905540117

>  <inter_energy>  (11) 
-532.1912785510453

>  <intra_energy>  (11) 
0.0

>  <rmsd>  (11) 
1.59893

>  <sdf_rank>  (11) 
0

$$$$

     RDKit          3D

 15 15  0  0  0  0  0  0  0  0999 V2000
   16.2781    8.4331    3.9886 N   0  0  0  0  0  0  0  0  0  0  0  0
   16.0438    8.4571    5.3098 C   0  0  0  0  0  0  0  0  0  0  0  0
   14.9873    9.1826    5.8410 C   0  0  0  0  0  0  0  0  0  0  0  0
   14.1853    9.9179    4.9683 C   0  0  0  0  0  0  0  0  0  0  0  0
   14.4440    9.8626    3.6085 C   0  0  0  0  0  0  0  0  0  0  0  0
   15.5046    9.1281    3.1440 C   0  0  0  0  0  0  0  0  0  0  0  0
   14.7590    9.1617    7.3263 C   0  0  0  0  0  0  0  0  0  0  0  0
   15.6035    8.5739    8.0262 O   0  0  0  0  0  0  0  0  0  0  0  0
   13.6896    9.7443    7.8273 N   0  0  0  0  0  0  0  0  0  0  0  0
   16.7022    7.8904    5.9847 H   0  0  0  0  0  0  0  0  0  0  0  0
   13.3591   10.5330    5.3544 H   0  0  0  0  0  0  0  0  0  0  0  0
   13.7996   10.4070    2.9026 H   0  0  0  0  0  0  0  0  0  0  0  0
   15.7227    9.1094    2.0660 H   0  0  0  0  0  0  0  0  0  0  0  0
   13.5263    9.7341    8.8442 H   0  0  0  0  0  0  0  0  0  0  0  0
   13.0165   10.2102    7.2022 H   0  0  0  0  0  0  0  0  0  0  0  0
  1  2  2  0
  1  6  1  0
  2  3  1  0
  3  4  2  0
  3  7  1  0
  4  5  1  0
  5  6  2  0
  7  8  2  0
  7  9  1  0
  2 10  1  0
  4 11  1  0
  5 12  1  0
  6 13  1  0
  9 14  1  0
  9 15  1  0
M  END
>  <filename_input>  (12) 
8DSC_NCA_docked.sdf

>  <pdb_id>  (12) 
8DSC_NCA

>  <pose_rank>  (12) 
11

>  <num_atoms_heavy>  (12) 
9

>  <num_torsions>  (12) 
1

>  <pose>  (12) 
[16.27806454724795, 8.433114435581135, 3.988649979804813, -1.7628244516365805, -2.604177613351336, -0.33517672915626545, -6.132534747739978]

>  <energy>  (12) 
-482.1181188858486

>  <inter_energy>  (12) 
-467.3054731862253

>  <intra_energy>  (12) 
0.0

>  <rmsd>  (12) 
4.03429

>  <sdf_rank>  (12) 
0

$$$$

     RDKit          3D

 15 15  0  0  0  0  0  0  0  0999 V2000
   14.0779    9.5951    7.1382 N   0  0  0  0  0  0  0  0  0  0  0  0
   14.3800    9.5371    5.8320 C   0  0  0  0  0  0  0  0  0  0  0  0
   15.4804    8.8245    5.3781 C   0  0  0  0  0  0  0  0  0  0  0  0
   16.2908    8.1894    6.3190 C   0  0  0  0  0  0  0  0  0  0  0  0
   15.9455    8.2563    7.6589 C   0  0  0  0  0  0  0  0  0  0  0  0
   14.8458    8.9779    8.0461 C   0  0  0  0  0  0  0  0  0  0  0  0
   15.7642    8.7778    3.9029 C   0  0  0  0  0  0  0  0  0  0  0  0
   15.2847    9.6855    3.1996 O   0  0  0  0  0  0  0  0  0  0  0  0
   16.4864    7.7926    3.4114 N   0  0  0  0  0  0  0  0  0  0  0  0
   13.7429   10.0649    5.1070 H   0  0  0  0  0  0  0  0  0  0  0  0
   17.1913    7.6432    6.0016 H   0  0  0  0  0  0  0  0  0  0  0  0
   16.5526    7.7312    8.4111 H   0  0  0  0  0  0  0  0  0  0  0  0
   14.5912    9.0509    9.1137 H   0  0  0  0  0  0  0  0  0  0  0  0
   16.6851    7.7537    2.4015 H   0  0  0  0  0  0  0  0  0  0  0  0
   16.8528    7.0608    4.0368 H   0  0  0  0  0  0  0  0  0  0  0  0
  1  2  2  0
  1  6  1  0
  2  3  1  0
  3  4  2  0
  3  7  1  0
  4  5  1  0
  5  6  2  0
  7  8  2  0
  7  9  1  0
  2 10  1  0
  4 11  1  0
  5 12  1  0
  6 13  1  0
  9 14  1  0
  9 15  1  0
M  END
>  <filename_input>  (13) 
8DSC_NCA_docked.sdf

>  <pdb_id>  (13) 
8DSC_NCA

>  <pose_rank>  (13) 
12

>  <num_atoms_heavy>  (13) 
9

>  <num_torsions>  (13) 
1

>  <pose>  (13) 
[14.077855304992804, 9.595067461907131, 7.138177058619091, -3.9101196002275334, -2.864070067604369, -4.1532145245888925, -5.84658983582954]

>  <energy>  (13) 
-471.08257572039685

>  <inter_energy>  (13) 
-465.25608739142086

>  <intra_energy>  (13) 
0.0

>  <rmsd>  (13) 
0.899735

>  <sdf_rank>  (13) 
0

$$$$

     RDKit          3D

 15 15  0  0  0  0  0  0  0  0999 V2000
   13.5065    9.7420    7.6995 N   0  0  0  0  0  0  0  0  0  0  0  0
   13.6634    9.9209    6.3788 C   0  0  0  0  0  0  0  0  0  0  0  0
   14.7828    9.4405    5.7148 C   0  0  0  0  0  0  0  0  0  0  0  0
   15.7649    8.7888    6.4606 C   0  0  0  0  0  0  0  0  0  0  0  0
   15.5682    8.6077    7.8198 C   0  0  0  0  0  0  0  0  0  0  0  0
   14.4408    9.1070    8.4196 C   0  0  0  0  0  0  0  0  0  0  0  0
   14.9011    9.6530    4.2316 C   0  0  0  0  0  0  0  0  0  0  0  0
   14.0819   10.4225    3.6974 O   0  0  0  0  0  0  0  0  0  0  0  0
   15.8410    9.0230    3.5582 N   0  0  0  0  0  0  0  0  0  0  0  0
   12.8895   10.4589    5.8116 H   0  0  0  0  0  0  0  0  0  0  0  0
   16.6827    8.4238    5.9763 H   0  0  0  0  0  0  0  0  0  0  0  0
   16.3152    8.0643    8.4170 H   0  0  0  0  0  0  0  0  0  0  0  0
   14.3020    8.9848    9.5040 H   0  0  0  0  0  0  0  0  0  0  0  0
   15.9283    9.1635    2.5416 H   0  0  0  0  0  0  0  0  0  0  0  0
   16.4889    8.3896    4.0480 H   0  0  0  0  0  0  0  0  0  0  0  0
  1  2  2  0
  1  6  1  0
  2  3  1  0
  3  4  2  0
  3  7  1  0
  4  5  1  0
  5  6  2  0
  7  8  2  0
  7  9  1  0
  2 10  1  0
  4 11  1  0
  5 12  1  0
  6 13  1  0
  9 14  1  0
  9 15  1  0
M  END
>  <filename_input>  (14) 
8DSC_NCA_docked.sdf

>  <pdb_id>  (14) 
8DSC_NCA

>  <pose_rank>  (14) 
13

>  <num_atoms_heavy>  (14) 
9

>  <num_torsions>  (14) 
1

>  <pose>  (14) 
[13.506471439610404, 9.742018318165298, 7.699454686875827, -4.517776528621504, -2.868010752333987, -3.0376774010832337, -6.052084910012825]

>  <energy>  (14) 
-544.0565222754586

>  <inter_energy>  (14) 
-539.7596977036774

>  <intra_energy>  (14) 
0.0

>  <rmsd>  (14) 
0.357246

>  <sdf_rank>  (14) 
0

$$$$

     RDKit          3D

 15 15  0  0  0  0  0  0  0  0999 V2000
   13.3674   10.1451    7.0402 N   0  0  0  0  0  0  0  0  0  0  0  0
   13.6540   10.1326    5.7292 C   0  0  0  0  0  0  0  0  0  0  0  0
   14.7670    9.4632    5.2415 C   0  0  0  0  0  0  0  0  0  0  0  0
   15.6062    8.8236    6.1537 C   0  0  0  0  0  0  0  0  0  0  0  0
   15.2767    8.8428    7.4991 C   0  0  0  0  0  0  0  0  0  0  0  0
   14.1633    9.5232    7.9204 C   0  0  0  0  0  0  0  0  0  0  0  0
   15.0327    9.4663    3.7622 C   0  0  0  0  0  0  0  0  0  0  0  0
   14.1008    9.1207    3.0135 O   0  0  0  0  0  0  0  0  0  0  0  0
   16.2211    9.8167    3.3165 N   0  0  0  0  0  0  0  0  0  0  0  0
   12.9937   10.6635    5.0277 H   0  0  0  0  0  0  0  0  0  0  0  0
   16.5167    8.3112    5.8097 H   0  0  0  0  0  0  0  0  0  0  0  0
   15.9073    8.3131    8.2283 H   0  0  0  0  0  0  0  0  0  0  0  0
   13.9208    9.5587    8.9927 H   0  0  0  0  0  0  0  0  0  0  0  0
   16.4107    9.8213    2.3041 H   0  0  0  0  0  0  0  0  0  0  0  0
   16.9611   10.0863    3.9803 H   0  0  0  0  0  0  0  0  0  0  0  0
  1  2  2  0
  1  6  1  0
  2  3  1  0
  3  4  2  0
  3  7  1  0
  4  5  1  0
  5  6  2  0
  7  8  2  0
  7  9  1  0
  2 10  1  0
  4 11  1  0
  5 12  1  0
  6 13  1  0
  9 14  1  0
  9 15  1  0
M  END
>  <filename_input>  (15) 
8DSC_NCA_docked.sdf

>  <pdb_id>  (15) 
8DSC_NCA

>  <pose_rank>  (15) 
14

>  <num_atoms_heavy>  (15) 
9

>  <num_torsions>  (15) 
1

>  <pose>  (15) 
[13.36744471086896, 10.145094236606623, 7.040150722866325, -3.4339936805825295, -3.41658617480373, -4.0942220184488765, -7.137742729341367]

>  <energy>  (15) 
-460.2142548777306

>  <inter_energy>  (15) 
-463.0583141016593

>  <intra_energy>  (15) 
0.0

>  <rmsd>  (15) 
0.792337

>  <sdf_rank>  (15) 
0

$$$$

     RDKit          3D

 15 15  0  0  0  0  0  0  0  0999 V2000
   12.8966   10.0273    8.3270 N   0  0  0  0  0  0  0  0  0  0  0  0
   13.1609   10.0979    7.0132 C   0  0  0  0  0  0  0  0  0  0  0  0
   14.2960    9.5101    6.4741 C   0  0  0  0  0  0  0  0  0  0  0  0
   15.1804    8.8648    7.3384 C   0  0  0  0  0  0  0  0  0  0  0  0
   14.8735    8.7970    8.6876 C   0  0  0  0  0  0  0  0  0  0  0  0
   13.7363    9.3992    9.1609 C   0  0  0  0  0  0  0  0  0  0  0  0
   14.5357    9.6041    4.9934 C   0  0  0  0  0  0  0  0  0  0  0  0
   15.2151    8.7046    4.4661 O   0  0  0  0  0  0  0  0  0  0  0  0
   14.0388   10.6195    4.3182 N   0  0  0  0  0  0  0  0  0  0  0  0
   12.4639   10.6323    6.3508 H   0  0  0  0  0  0  0  0  0  0  0  0
   16.1083    8.4161    6.9541 H   0  0  0  0  0  0  0  0  0  0  0  0
   15.5411    8.2609    9.3781 H   0  0  0  0  0  0  0  0  0  0  0  0
   13.5108    9.3663   10.2370 H   0  0  0  0  0  0  0  0  0  0  0  0
   14.1989   10.6908    3.3032 H   0  0  0  0  0  0  0  0  0  0  0  0
   13.4901   11.3425    4.8051 H   0  0  0  0  0  0  0  0  0  0  0  0
  1  2  2  0
  1  6  1  0
  2  3  1  0
  3  4  2  0
  3  7  1  0
  4  5  1  0
  5  6  2  0
  7  8  2  0
  7  9  1  0
  2 10  1  0
  4 11  1  0
  5 12  1  0
  6 13  1  0
  9 14  1  0
  9 15  1  0
M  END
>  <filename_input>  (16) 
8DSC_NCA_docked.sdf

>  <pdb_id>  (16) 
8DSC_NCA

>  <pose_rank>  (16) 
15

>  <num_atoms_heavy>  (16) 
9

>  <num_torsions>  (16) 
1

>  <pose>  (16) 
[12.896614254981444, 10.027256604150367, 8.326958904299781, -4.7560194523669175, 3.4966433424807573, -2.0683240023154514, 3.6564646139629113]

>  <energy>  (16) 
-462.118365616941

>  <inter_energy>  (16) 
-459.12287652701093

>  <intra_energy>  (16) 
0.0

>  <rmsd>  (16) 
1.412

>  <sdf_rank>  (16) 
0

$$$$

     RDKit          3D

 15 15  0  0  0  0  0  0  0  0999 V2000
   13.4210    9.7326    7.8653 N   0  0  0  0  0  0  0  0  0  0  0  0
   13.7052    9.8707    6.5610 C   0  0  0  0  0  0  0  0  0  0  0  0
   14.9109    9.4291    6.0358 C   0  0  0  0  0  0  0  0  0  0  0  0
   15.8423    8.8613    6.9050 C   0  0  0  0  0  0  0  0  0  0  0  0
   15.5147    8.7203    8.2436 C   0  0  0  0  0  0  0  0  0  0  0  0
   14.3067    9.1779    8.7034 C   0  0  0  0  0  0  0  0  0  0  0  0
   15.1718    9.5925    4.5647 C   0  0  0  0  0  0  0  0  0  0  0  0
   16.3594    9.6112    4.1935 O   0  0  0  0  0  0  0  0  0  0  0  0
   14.1570    9.7190    3.7353 N   0  0  0  0  0  0  0  0  0  0  0  0
   12.9678   10.3433    5.8954 H   0  0  0  0  0  0  0  0  0  0  0  0
   16.8231    8.5303    6.5329 H   0  0  0  0  0  0  0  0  0  0  0  0
   16.2225    8.2419    8.9365 H   0  0  0  0  0  0  0  0  0  0  0  0
   14.0623    9.0886    9.7722 H   0  0  0  0  0  0  0  0  0  0  0  0
   14.3278    9.8314    2.7258 H   0  0  0  0  0  0  0  0  0  0  0  0
   13.1923    9.7055    4.0959 H   0  0  0  0  0  0  0  0  0  0  0  0
  1  2  2  0
  1  6  1  0
  2  3  1  0
  3  4  2  0
  3  7  1  0
  4  5  1  0
  5  6  2  0
  7  8  2  0
  7  9  1  0
  2 10  1  0
  4 11  1  0
  5 12  1  0
  6 13  1  0
  9 14  1  0
  9 15  1  0
M  END
>  <filename_input>  (17) 
8DSC_NCA_docked.sdf

>  <pdb_id>  (17) 
8DSC_NCA

>  <pose_rank>  (17) 
16

>  <num_atoms_heavy>  (17) 
9

>  <num_torsions>  (17) 
1

>  <pose>  (17) 
[13.42097049601095, 9.732644716371684, 7.865255101887301, -2.253659141599057, 1.742004992657668, -5.446293675538407, 2.7905676859550037]

>  <energy>  (17) 
-479.44647909705094

>  <inter_energy>  (17) 
-485.5071739236151

>  <intra_energy>  (17) 
0.0

>  <rmsd>  (17) 
1.06891

>  <sdf_rank>  (17) 
0

$$$$

     RDKit          3D

 15 15  0  0  0  0  0  0  0  0999 V2000
   16.2938    8.4701    7.6923 N   0  0  0  0  0  0  0  0  0  0  0  0
   16.1395    8.6741    6.3749 C   0  0  0  0  0  0  0  0  0  0  0  0
   15.0378    9.3532    5.8754 C   0  0  0  0  0  0  0  0  0  0  0  0
   14.0699    9.7966    6.7765 C   0  0  0  0  0  0  0  0  0  0  0  0
   14.2638    9.5828    8.1314 C   0  0  0  0  0  0  0  0  0  0  0  0
   15.3734    8.9034    8.5641 C   0  0  0  0  0  0  0  0  0  0  0  0
   14.9222    9.5695    4.3925 C   0  0  0  0  0  0  0  0  0  0  0  0
   14.0599   10.3754    3.9980 O   0  0  0  0  0  0  0  0  0  0  0  0
   15.7129    8.9051    3.5757 N   0  0  0  0  0  0  0  0  0  0  0  0
   16.9014    8.2955    5.6777 H   0  0  0  0  0  0  0  0  0  0  0  0
   13.1655   10.3088    6.4165 H   0  0  0  0  0  0  0  0  0  0  0  0
   13.5288    9.9574    8.8590 H   0  0  0  0  0  0  0  0  0  0  0  0
   15.5093    8.7119    9.6388 H   0  0  0  0  0  0  0  0  0  0  0  0
   15.6396    9.0480    2.5583 H   0  0  0  0  0  0  0  0  0  0  0  0
   16.4047    8.2425    3.9542 H   0  0  0  0  0  0  0  0  0  0  0  0
  1  2  2  0
  1  6  1  0
  2  3  1  0
  3  4  2  0
  3  7  1  0
  4  5  1  0
  5  6  2  0
  7  8  2  0
  7  9  1  0
  2 10  1  0
  4 11  1  0
  5 12  1  0
  6 13  1  0
  9 14  1  0
  9 15  1  0
M  END
>  <filename_input>  (18) 
8DSC_NCA_docked.sdf

>  <pdb_id>  (18) 
8DSC_NCA

>  <pose_rank>  (18) 
17

>  <num_atoms_heavy>  (18) 
9

>  <num_torsions>  (18) 
1

>  <pose>  (18) 
[16.293828949733204, 8.470144545100625, 7.692325669585583, -0.10986046933138946, -0.298032570660379, 3.1520906703323535, 9.692161226979088]

>  <energy>  (18) 
-588.7181416785877

>  <inter_energy>  (18) 
-584.4631149508909

>  <intra_energy>  (18) 
0.0

>  <rmsd>  (18) 
1.66328

>  <sdf_rank>  (18) 
0

$$$$

     RDKit          3D

 15 15  0  0  0  0  0  0  0  0999 V2000
   14.5707    9.9433    3.8711 N   0  0  0  0  0  0  0  0  0  0  0  0
   14.0099   10.1924    5.0645 C   0  0  0  0  0  0  0  0  0  0  0  0
   14.5249    9.6452    6.2307 C   0  0  0  0  0  0  0  0  0  0  0  0
   15.6290    8.7986    6.1324 C   0  0  0  0  0  0  0  0  0  0  0  0
   16.1939    8.5713    4.8881 C   0  0  0  0  0  0  0  0  0  0  0  0
   15.6382    9.1401    3.7711 C   0  0  0  0  0  0  0  0  0  0  0  0
   13.8689    9.9702    7.5433 C   0  0  0  0  0  0  0  0  0  0  0  0
   13.0670   10.9216    7.5614 O   0  0  0  0  0  0  0  0  0  0  0  0
   14.1659    9.2595    8.6113 N   0  0  0  0  0  0  0  0  0  0  0  0
   13.1246   10.8431    5.1192 H   0  0  0  0  0  0  0  0  0  0  0  0
   16.0453    8.3183    7.0302 H   0  0  0  0  0  0  0  0  0  0  0  0
   17.0869    7.9355    4.7964 H   0  0  0  0  0  0  0  0  0  0  0  0
   16.0737    8.9346    2.7821 H   0  0  0  0  0  0  0  0  0  0  0  0
   13.7204    9.4762    9.5144 H   0  0  0  0  0  0  0  0  0  0  0  0
   14.8437    8.4869    8.5437 H   0  0  0  0  0  0  0  0  0  0  0  0
  1  2  2  0
  1  6  1  0
  2  3  1  0
  3  4  2  0
  3  7  1  0
  4  5  1  0
  5  6  2  0
  7  8  2  0
  7  9  1  0
  2 10  1  0
  4 11  1  0
  5 12  1  0
  6 13  1  0
  9 14  1  0
  9 15  1  0
M  END
>  <filename_input>  (19) 
8DSC_NCA_docked.sdf

>  <pdb_id>  (19) 
8DSC_NCA

>  <pose_rank>  (19) 
18

>  <num_atoms_heavy>  (19) 
9

>  <num_torsions>  (19) 
1

>  <pose>  (19) 
[14.570705678640769, 9.943330587955252, 3.871077581026045, -2.451006088583966, 1.7922143906399397, -0.9342766969072077, -0.1970965335377918]

>  <energy>  (19) 
-392.2321618670635

>  <inter_energy>  (19) 
-391.35057141701583

>  <intra_energy>  (19) 
0.0

>  <rmsd>  (19) 
3.49896

>  <sdf_rank>  (19) 
0

$$$$

     RDKit          3D

 15 15  0  0  0  0  0  0  0  0999 V2000
   14.1024    9.4368    8.1770 N   0  0  0  0  0  0  0  0  0  0  0  0
   14.3575    9.4986    6.8609 C   0  0  0  0  0  0  0  0  0  0  0  0
   15.4926    8.9133    6.3190 C   0  0  0  0  0  0  0  0  0  0  0  0
   16.3865    8.2802    7.1824 C   0  0  0  0  0  0  0  0  0  0  0  0
   16.0890    8.2213    8.5341 C   0  0  0  0  0  0  0  0  0  0  0  0
   14.9513    8.8205    9.0102 C   0  0  0  0  0  0  0  0  0  0  0  0
   15.7219    8.9970    4.8360 C   0  0  0  0  0  0  0  0  0  0  0  0
   16.4031    8.0974    4.3113 O   0  0  0  0  0  0  0  0  0  0  0  0
   15.2144   10.0040    4.1561 N   0  0  0  0  0  0  0  0  0  0  0  0
   13.6530   10.0236    6.1991 H   0  0  0  0  0  0  0  0  0  0  0  0
   17.3145    7.8340    6.7955 H   0  0  0  0  0  0  0  0  0  0  0  0
   16.7644    7.6946    9.2244 H   0  0  0  0  0  0  0  0  0  0  0  0
   14.7332    8.7948   10.0881 H   0  0  0  0  0  0  0  0  0  0  0  0
   15.3673   10.0682    3.1396 H   0  0  0  0  0  0  0  0  0  0  0  0
   14.6646   10.7276    4.6409 H   0  0  0  0  0  0  0  0  0  0  0  0
  1  2  2  0
  1  6  1  0
  2  3  1  0
  3  4  2  0
  3  7  1  0
  4  5  1  0
  5  6  2  0
  7  8  2  0
  7  9  1  0
  2 10  1  0
  4 11  1  0
  5 12  1  0
  6 13  1  0
  9 14  1  0
  9 15  1  0
M  END
>  <filename_input>  (20) 
8DSC_NCA_docked.sdf

>  <pdb_id>  (20) 
8DSC_NCA

>  <pose_rank>  (20) 
19

>  <num_atoms_heavy>  (20) 
9

>  <num_torsions>  (20) 
1

>  <pose>  (20) 
[14.102394854760412, 9.436845428034912, 8.176981292248565, -3.8121296665574635, 2.52418402250275, -4.277088967262832, 3.6564646139629113]

>  <energy>  (20) 
-426.9474727032898

>  <inter_energy>  (20) 
-420.6139801589087

>  <intra_energy>  (20) 
0.0

>  <rmsd>  (20) 
1.31249

>  <sdf_rank>  (20) 
0

$$$$

     RDKit          3D

 15 15  0  0  0  0  0  0  0  0999 V2000
   15.3861    9.6774    5.2126 N   0  0  0  0  0  0  0  0  0  0  0  0
   14.4952   10.1200    6.1134 C   0  0  0  0  0  0  0  0  0  0  0  0
   14.4623    9.6114    7.4037 C   0  0  0  0  0  0  0  0  0  0  0  0
   15.3621    8.5999    7.7389 C   0  0  0  0  0  0  0  0  0  0  0  0
   16.2784    8.1733    6.7915 C   0  0  0  0  0  0  0  0  0  0  0  0
   16.2605    8.7138    5.5316 C   0  0  0  0  0  0  0  0  0  0  0  0
   13.4555   10.1544    8.3786 C   0  0  0  0  0  0  0  0  0  0  0  0
   13.3623    9.5845    9.4809 O   0  0  0  0  0  0  0  0  0  0  0  0
   12.7128   11.1870    8.0378 N   0  0  0  0  0  0  0  0  0  0  0  0
   13.7773   10.9011    5.8230 H   0  0  0  0  0  0  0  0  0  0  0  0
   15.3445    8.1472    8.7413 H   0  0  0  0  0  0  0  0  0  0  0  0
   17.0191    7.4021    7.0497 H   0  0  0  0  0  0  0  0  0  0  0  0
   16.9720    8.3525    4.7745 H   0  0  0  0  0  0  0  0  0  0  0  0
   12.0207   11.5647    8.7005 H   0  0  0  0  0  0  0  0  0  0  0  0
   12.8240   11.6169    7.1084 H   0  0  0  0  0  0  0  0  0  0  0  0
  1  2  2  0
  1  6  1  0
  2  3  1  0
  3  4  2  0
  3  7  1  0
  4  5  1  0
  5  6  2  0
  7  8  2  0
  7  9  1  0
  2 10  1  0
  4 11  1  0
  5 12  1  0
  6 13  1  0
  9 14  1  0
  9 15  1  0
M  END
>  <filename_input>  (21) 
8DSC_NCA_docked.sdf

>  <pdb_id>  (21) 
8DSC_NCA

>  <pose_rank>  (21) 
20

>  <num_atoms_heavy>  (21) 
9

>  <num_torsions>  (21) 
1

>  <pose>  (21) 
[15.38605181161145, 9.677355492362338, 5.212569603529281, -2.0074736489746865, 1.877323145624649, -1.3667490654524386, 3.068535479712873]

>  <energy>  (21) 
-426.89499849393616

>  <inter_energy>  (21) 
-416.43973889362417

>  <intra_energy>  (21) 
0.0

>  <rmsd>  (21) 
3.64139

>  <sdf_rank>  (21) 
0

$$$$

     RDKit          3D

 15 15  0  0  0  0  0  0  0  0999 V2000
   16.7404    8.2986    8.2630 N   0  0  0  0  0  0  0  0  0  0  0  0
   16.3148    8.4860    7.0042 C   0  0  0  0  0  0  0  0  0  0  0  0
   15.1071    9.1146    6.7382 C   0  0  0  0  0  0  0  0  0  0  0  0
   14.3231    9.5240    7.8167 C   0  0  0  0  0  0  0  0  0  0  0  0
   14.7955    9.3288    9.1043 C   0  0  0  0  0  0  0  0  0  0  0  0
   15.9974    8.6996    9.3032 C   0  0  0  0  0  0  0  0  0  0  0  0
   14.6854    9.3146    5.3095 C   0  0  0  0  0  0  0  0  0  0  0  0
   13.4952    9.6122    5.1012 O   0  0  0  0  0  0  0  0  0  0  0  0
   15.5679    9.1610    4.3443 N   0  0  0  0  0  0  0  0  0  0  0  0
   16.9356    8.1342    6.1670 H   0  0  0  0  0  0  0  0  0  0  0  0
   13.3437    9.9953    7.6473 H   0  0  0  0  0  0  0  0  0  0  0  0
   14.2072    9.6779    9.9657 H   0  0  0  0  0  0  0  0  0  0  0  0
   16.3554    8.5222   10.3281 H   0  0  0  0  0  0  0  0  0  0  0  0
   15.2864    9.2963    3.3628 H   0  0  0  0  0  0  0  0  0  0  0  0
   16.5396    8.9054    4.5709 H   0  0  0  0  0  0  0  0  0  0  0  0
  1  2  2  0
  1  6  1  0
  2  3  1  0
  3  4  2  0
  3  7  1  0
  4  5  1  0
  5  6  2  0
  7  8  2  0
  7  9  1  0
  2 10  1  0
  4 11  1  0
  5 12  1  0
  6 13  1  0
  9 14  1  0
  9 15  1  0
M  END
>  <filename_input>  (22) 
8DSC_NCA_docked.sdf

>  <pdb_id>  (22) 
8DSC_NCA

>  <pose_rank>  (22) 
21

>  <num_atoms_heavy>  (22) 
9

>  <num_torsions>  (22) 
1

>  <pose>  (22) 
[16.740385746019378, 8.298622425204426, 8.263036381260173, 0.21873265897341104, -0.30000095535235594, 3.169372703866018, 9.214386079826465]

>  <energy>  (22) 
-445.71585276248436

>  <inter_energy>  (22) 
-445.8379165805354

>  <intra_energy>  (22) 
0.0

>  <rmsd>  (22) 
2.02018

>  <sdf_rank>  (22) 
0

$$$$

     RDKit          3D

 15 15  0  0  0  0  0  0  0  0999 V2000
   13.6670   10.1882    7.5035 N   0  0  0  0  0  0  0  0  0  0  0  0
   13.8722   10.0370    6.1859 C   0  0  0  0  0  0  0  0  0  0  0  0
   14.9601    9.3239    5.7035 C   0  0  0  0  0  0  0  0  0  0  0  0
   15.8608    8.7888    6.6243 C   0  0  0  0  0  0  0  0  0  0  0  0
   15.6148    8.9503    7.9780 C   0  0  0  0  0  0  0  0  0  0  0  0
   14.5223    9.6671    8.3933 C   0  0  0  0  0  0  0  0  0  0  0  0
   15.1338    9.1700    4.2186 C   0  0  0  0  0  0  0  0  0  0  0  0
   16.2855    8.9601    3.7967 O   0  0  0  0  0  0  0  0  0  0  0  0
   14.0855    9.2710    3.4282 N   0  0  0  0  0  0  0  0  0  0  0  0
   13.1641   10.4871    5.4746 H   0  0  0  0  0  0  0  0  0  0  0  0
   16.7538    8.2463    6.2805 H   0  0  0  0  0  0  0  0  0  0  0  0
   16.2949    8.5041    8.7186 H   0  0  0  0  0  0  0  0  0  0  0  0
   14.3461    9.8160    9.4689 H   0  0  0  0  0  0  0  0  0  0  0  0
   14.1967    9.1668    2.4095 H   0  0  0  0  0  0  0  0  0  0  0  0
   13.1544    9.4543    3.8285 H   0  0  0  0  0  0  0  0  0  0  0  0
  1  2  2  0
  1  6  1  0
  2  3  1  0
  3  4  2  0
  3  7  1  0
  4  5  1  0
  5  6  2  0
  7  8  2  0
  7  9  1  0
  2 10  1  0
  4 11  1  0
  5 12  1  0
  6 13  1  0
  9 14  1  0
  9 15  1  0
M  END
>  <filename_input>  (23) 
8DSC_NCA_docked.sdf

>  <pdb_id>  (23) 
8DSC_NCA

>  <pose_rank>  (23) 
22

>  <num_atoms_heavy>  (23) 
9

>  <num_torsions>  (23) 
1

>  <pose>  (23) 
[13.666966118038559, 10.188197450314785, 7.503470467114353, -6.183753730577937, 1.244564091419459, -1.2414259853952634, 2.7673454746324477]

>  <energy>  (23) 
-487.9014328774978

>  <inter_energy>  (23) 
-484.7062544422532

>  <intra_energy>  (23) 
0.0

>  <rmsd>  (23) 
1.08414

>  <sdf_rank>  (23) 
0

$$$$

     RDKit          3D

 15 15  0  0  0  0  0  0  0  0999 V2000
   14.1125    9.4086    1.9477 N   0  0  0  0  0  0  0  0  0  0  0  0
   13.9984    9.6787    3.2572 C   0  0  0  0  0  0  0  0  0  0  0  0
   14.9404    9.2280    4.1705 C   0  0  0  0  0  0  0  0  0  0  0  0
   16.0016    8.4554    3.6990 C   0  0  0  0  0  0  0  0  0  0  0  0
   16.0995    8.2046    2.3401 C   0  0  0  0  0  0  0  0  0  0  0  0
   15.1355    8.6765    1.4869 C   0  0  0  0  0  0  0  0  0  0  0  0
   14.7742    9.5733    5.6238 C   0  0  0  0  0  0  0  0  0  0  0  0
   14.0548   10.5503    5.9005 O   0  0  0  0  0  0  0  0  0  0  0  0
   15.3909    8.8527    6.5372 N   0  0  0  0  0  0  0  0  0  0  0  0
   13.1412   10.2690    3.6134 H   0  0  0  0  0  0  0  0  0  0  0  0
   16.7501    8.0509    4.3963 H   0  0  0  0  0  0  0  0  0  0  0  0
   16.9493    7.6278    1.9462 H   0  0  0  0  0  0  0  0  0  0  0  0
   15.2029    8.4515    0.4122 H   0  0  0  0  0  0  0  0  0  0  0  0
   15.2818    9.0832    7.5351 H   0  0  0  0  0  0  0  0  0  0  0  0
   15.9823    8.0585    6.2537 H   0  0  0  0  0  0  0  0  0  0  0  0
  1  2  2  0
  1  6  1  0
  2  3  1  0
  3  4  2  0
  3  7  1  0
  4  5  1  0
  5  6  2  0
  7  8  2  0
  7  9  1  0
  2 10  1  0
  4 11  1  0
  5 12  1  0
  6 13  1  0
  9 14  1  0
  9 15  1  0
M  END
>  <filename_input>  (24) 
8DSC_NCA_docked.sdf

>  <pdb_id>  (24) 
8DSC_NCA

>  <pose_rank>  (24) 
23

>  <num_atoms_heavy>  (24) 
9

>  <num_torsions>  (24) 
1

>  <pose>  (24) 
[14.112541998525682, 9.408564448205468, 1.9477071586627854, 2.4285182612187697, -1.5034952250557025, 0.46257484969754703, -0.3137765228816262]

>  <energy>  (24) 
-357.6050726247327

>  <inter_energy>  (24) 
-354.4012266626605

>  <intra_energy>  (24) 
0.0

>  <rmsd>  (24) 
4.1462

>  <sdf_rank>  (24) 
0

$$$$

     RDKit          3D

 15 15  0  0  0  0  0  0  0  0999 V2000
   14.8865    8.4858    0.9345 N   0  0  0  0  0  0  0  0  0  0  0  0
   14.4913    8.9579    2.1269 C   0  0  0  0  0  0  0  0  0  0  0  0
   15.2256    8.7125    3.2781 C   0  0  0  0  0  0  0  0  0  0  0  0
   16.3769    7.9321    3.1742 C   0  0  0  0  0  0  0  0  0  0  0  0
   16.7664    7.4702    1.9276 C   0  0  0  0  0  0  0  0  0  0  0  0
   15.9975    7.7450    0.8261 C   0  0  0  0  0  0  0  0  0  0  0  0
   14.7475    9.2792    4.5855 C   0  0  0  0  0  0  0  0  0  0  0  0
   13.8030   10.0884    4.5465 O   0  0  0  0  0  0  0  0  0  0  0  0
   15.3384    8.9169    5.7051 N   0  0  0  0  0  0  0  0  0  0  0  0
   13.5672    9.5510    2.1928 H   0  0  0  0  0  0  0  0  0  0  0  0
   16.9672    7.6869    4.0694 H   0  0  0  0  0  0  0  0  0  0  0  0
   17.6911    6.8839    1.8216 H   0  0  0  0  0  0  0  0  0  0  0  0
   16.2961    7.3529   -0.1573 H   0  0  0  0  0  0  0  0  0  0  0  0
   15.0164    9.3009    6.6050 H   0  0  0  0  0  0  0  0  0  0  0  0
   16.1225    8.2495    5.6811 H   0  0  0  0  0  0  0  0  0  0  0  0
  1  2  2  0
  1  6  1  0
  2  3  1  0
  3  4  2  0
  3  7  1  0
  4  5  1  0
  5  6  2  0
  7  8  2  0
  7  9  1  0
  2 10  1  0
  4 11  1  0
  5 12  1  0
  6 13  1  0
  9 14  1  0
  9 15  1  0
M  END
>  <filename_input>  (25) 
8DSC_NCA_docked.sdf

>  <pdb_id>  (25) 
8DSC_NCA

>  <pose_rank>  (25) 
24

>  <num_atoms_heavy>  (25) 
9

>  <num_torsions>  (25) 
1

>  <pose>  (25) 
[14.88651698751699, 8.485794039076824, 0.9345223107402767, 2.3394421169020316, -1.435540343985373, 0.842454238002811, 6.177398233771364]

>  <energy>  (25) 
-356.976742141995

>  <inter_energy>  (25) 
-348.58170283114913

>  <intra_energy>  (25) 
0.0

>  <rmsd>  (25) 
4.7161

>  <sdf_rank>  (25) 
0

$$$$

     RDKit          3D

 15 15  0  0  0  0  0  0  0  0999 V2000
   13.6450    9.9480    7.7070 N   0  0  0  0  0  0  0  0  0  0  0  0
   13.8890    9.9880    6.3880 C   0  0  0  0  0  0  0  0  0  0  0  0
   15.0100    9.3780    5.8440 C   0  0  0  0  0  0  0  0  0  0  0  0
   15.9020    8.7430    6.7080 C   0  0  0  0  0  0  0  0  0  0  0  0
   15.6160    8.7070    8.0630 C   0  0  0  0  0  0  0  0  0  0  0  0
   14.4920    9.3300    8.5410 C   0  0  0  0  0  0  0  0  0  0  0  0
   15.2270    9.4380    4.3580 C   0  0  0  0  0  0  0  0  0  0  0  0
   14.3480    9.9930    3.6740 O   0  0  0  0  0  0  0  0  0  0  0  0
   16.3120    8.9030    3.8380 N   0  0  0  0  0  0  0  0  0  0  0  0
   13.1865   10.5147    5.7253 H   0  0  0  0  0  0  0  0  0  0  0  0
   16.8195    8.2774    6.3190 H   0  0  0  0  0  0  0  0  0  0  0  0
   16.2896    8.1794    8.7543 H   0  0  0  0  0  0  0  0  0  0  0  0
   14.2834    9.3223    9.6210 H   0  0  0  0  0  0  0  0  0  0  0  0
   16.4677    8.9402    2.8205 H   0  0  0  0  0  0  0  0  0  0  0  0
   17.0050    8.4473    4.4487 H   0  0  0  0  0  0  0  0  0  0  0  0
  1  2  2  0
  1  6  1  0
  2  3  1  0
  3  4  2  0
  3  7  1  0
  4  5  1  0
  5  6  2  0
  7  8  2  0
  7  9  1  0
  2 10  1  0
  4 11  1  0
  5 12  1  0
  6 13  1  0
  9 14  1  0
  9 15  1  0
M  END
>  <filename_input>  (26) 
8DSC_NCA_docked.sdf

>  <pdb_id>  (26) 
8DSC_NCA

>  <pose_rank>  (26) 
25

>  <num_atoms_heavy>  (26) 
9

>  <num_torsions>  (26) 
1

>  <pose>  (26) 
[13.645, 9.948, 7.707, 1e-06, 1e-06, 1e-06, 0.0]

>  <energy>  (26) 
-524.3925207258641

>  <inter_energy>  (26) 
-523.2342804554078

>  <intra_energy>  (26) 
0.0

>  <rmsd>  (26) 
0.0

>  <sdf_rank>  (26) 
0

$$$$
