
     RDKit          3D

 70 74  0  0  0  0  0  0  0  0999 V2000
    1.8074  -19.3145   24.1982 C   0  0  0  0  0  0  0  0  0  0  0  0
    1.4956  -19.1857   22.8514 C   0  0  0  0  0  0  0  0  0  0  0  0
    2.4097  -18.5700   21.9999 C   0  0  0  0  0  0  0  0  0  0  0  0
    2.0393  -18.4279   20.6000 C   0  0  0  0  0  0  0  0  0  0  0  0
    1.9255  -17.1574   20.0302 C   0  0  0  0  0  0  0  0  0  0  0  0
    1.5877  -17.0104   18.6854 C   0  0  0  0  0  0  0  0  0  0  0  0
    1.3609  -18.1353   17.8922 C   0  0  0  0  0  0  0  0  0  0  0  0
    1.4790  -19.4050   18.4611 C   0  0  0  0  0  0  0  0  0  0  0  0
    1.8153  -19.5536   19.8065 C   0  0  0  0  0  0  0  0  0  0  0  0
    8.9611  -18.2303   21.3133 C   0  0  0  0  0  0  0  0  0  0  0  0
    1.0132  -17.9884   16.4546 C   0  0  1  0  0  0  0  0  0  0  0  0
    6.0790  -16.5982   19.9277 C   0  0  0  0  0  0  0  0  0  0  0  0
    5.3413  -15.4306   20.1657 C   0  0  0  0  0  0  0  0  0  0  0  0
    4.6853  -14.7710   19.1237 C   0  0  0  0  0  0  0  0  0  0  0  0
    4.7626  -15.2742   17.8241 C   0  0  0  0  0  0  0  0  0  0  0  0
    5.4957  -16.4355   17.5733 C   0  0  0  0  0  0  0  0  0  0  0  0
    6.1448  -17.0891   18.6216 C   0  0  0  0  0  0  0  0  0  0  0  0
    5.6048  -17.0056   16.2062 C   0  0  1  0  0  0  0  0  0  0  0  0
   10.1557  -18.8817   20.7693 C   0  0  0  0  0  0  0  0  0  0  0  0
   10.4574  -20.1770   21.1404 C   0  0  0  0  0  0  0  0  0  0  0  0
   12.3818  -20.1449   19.8823 C   0  0  0  0  0  0  0  0  0  0  0  0
   12.1556  -18.8457   19.4558 C   0  0  0  0  0  0  0  0  0  0  0  0
   11.0148  -18.1958   19.9109 C   0  0  0  0  0  0  0  0  0  0  0  0
    6.8059  -17.3372   21.0341 C   0  0  1  0  0  0  0  0  0  0  0  0
   10.7623  -16.8500   19.4454 C   0  0  0  0  0  0  0  0  0  0  0  0
   10.1316  -16.6323   18.2195 C   0  0  0  0  0  0  0  0  0  0  0  0
    9.8918  -15.3287   17.7816 C   0  0  0  0  0  0  0  0  0  0  0  0
   10.2949  -14.2492   18.5654 C   0  0  0  0  0  0  0  0  0  0  0  0
   10.9262  -14.4683   19.7887 C   0  0  0  0  0  0  0  0  0  0  0  0
   11.1555  -15.7687   20.2317 C   0  0  0  0  0  0  0  0  0  0  0  0
   10.0417  -12.8569   18.1210 C   0  0  1  0  0  0  0  0  0  0  0  0
    5.8846  -18.0820   21.9472 C   0  0  0  0  0  0  0  0  0  0  0  0
    3.5955  -18.1023   22.5710 C   0  0  0  0  0  0  0  0  0  0  0  0
    3.8117  -18.2474   23.9267 C   0  0  0  0  0  0  0  0  0  0  0  0
    1.7569  -18.7620   15.6226 F   0  0  0  0  0  0  0  0  0  0  0  0
   -0.2898  -18.3339   16.2363 F   0  0  0  0  0  0  0  0  0  0  0  0
    1.1484  -16.7066   16.0094 F   0  0  0  0  0  0  0  0  0  0  0  0
    4.7770  -18.0583   15.9926 F   0  0  0  0  0  0  0  0  0  0  0  0
    5.3078  -16.0993   15.2408 F   0  0  0  0  0  0  0  0  0  0  0  0
    6.8588  -17.4449   15.9201 F   0  0  0  0  0  0  0  0  0  0  0  0
    9.8295  -11.9944   19.1461 F   0  0  0  0  0  0  0  0  0  0  0  0
   11.1258  -12.3811   17.4530 F   0  0  0  0  0  0  0  0  0  0  0  0
    8.9846  -12.7627   17.2612 F   0  0  0  0  0  0  0  0  0  0  0  0
    2.9449  -18.8490   24.7641 N   0  0  0  0  0  0  0  0  0  0  0  0
    7.8159  -18.2533   20.5871 N   0  0  0  0  0  0  0  0  0  0  0  0
   11.5544  -20.8321   20.7055 N   0  0  0  0  0  0  0  0  0  0  0  0
    4.6350  -17.4851   21.9015 N   0  0  0  0  0  0  0  0  0  0  0  0
    9.0743  -17.6440   22.3746 O   0  0  0  0  0  0  0  0  0  0  0  0
    6.1946  -19.1664   22.4219 O   0  0  0  0  0  0  0  0  0  0  0  0
    1.0829  -19.8282   24.8471 H   0  0  0  0  0  0  0  0  0  0  0  0
    0.5393  -19.5649   22.4620 H   0  0  0  0  0  0  0  0  0  0  0  0
    2.1040  -16.2650   20.6481 H   0  0  0  0  0  0  0  0  0  0  0  0
    1.4999  -16.0046   18.2488 H   0  0  0  0  0  0  0  0  0  0  0  0
    1.3050  -20.2972   17.8418 H   0  0  0  0  0  0  0  0  0  0  0  0
    1.9041  -20.5595   20.2426 H   0  0  0  0  0  0  0  0  0  0  0  0
    5.2779  -15.0279   21.1874 H   0  0  0  0  0  0  0  0  0  0  0  0
    4.1088  -13.8565   19.3270 H   0  0  0  0  0  0  0  0  0  0  0  0
    4.2477  -14.7577   17.0006 H   0  0  0  0  0  0  0  0  0  0  0  0
    6.7174  -18.0055   18.4161 H   0  0  0  0  0  0  0  0  0  0  0  0
    9.7713  -20.6998   21.8229 H   0  0  0  0  0  0  0  0  0  0  0  0
   13.2926  -20.6508   19.5293 H   0  0  0  0  0  0  0  0  0  0  0  0
   12.8594  -18.3431   18.7761 H   0  0  0  0  0  0  0  0  0  0  0  0
    7.3000  -16.5184   21.5776 H   0  0  0  0  0  0  0  0  0  0  0  0
    9.8238  -17.4869   17.5991 H   0  0  0  0  0  0  0  0  0  0  0  0
    9.3861  -15.1540   16.8205 H   0  0  0  0  0  0  0  0  0  0  0  0
   11.2435  -13.6137   20.4045 H   0  0  0  0  0  0  0  0  0  0  0  0
   11.6463  -15.9420   21.2008 H   0  0  0  0  0  0  0  0  0  0  0  0
    4.7464  -17.8484   24.3478 H   0  0  0  0  0  0  0  0  0  0  0  0
    7.6819  -18.8782   19.7794 H   0  0  0  0  0  0  0  0  0  0  0  0
    4.4853  -16.6073   21.3837 H   0  0  0  0  0  0  0  0  0  0  0  0
  1  2  2  0
  1 44  1  0
  2  3  1  0
  3  4  1  0
  3 33  2  0
  4  5  2  0
  4  9  1  0
  5  6  1  0
  6  7  2  0
  7  8  1  0
  7 11  1  0
  8  9  2  0
 10 19  1  0
 10 45  1  0
 10 48  2  0
 11 35  1  6
 11 36  1  0
 11 37  1  0
 12 13  2  0
 12 17  1  0
 12 24  1  0
 13 14  1  0
 14 15  2  0
 15 16  1  0
 16 17  2  0
 16 18  1  0
 18 38  1  1
 18 39  1  0
 18 40  1  0
 19 20  2  0
 19 23  1  0
 20 46  1  0
 21 22  1  0
 21 46  2  0
 22 23  2  0
 23 25  1  0
 24 32  1  0
 24 45  1  0
 25 26  2  0
 25 30  1  0
 26 27  1  0
 27 28  2  0
 28 29  1  0
 28 31  1  0
 29 30  2  0
 31 41  1  1
 31 42  1  0
 31 43  1  0
 32 47  1  0
 32 49  2  0
 33 34  1  0
 33 47  1  0
 34 44  2  0
  1 50  1  0
  2 51  1  0
  5 52  1  0
  6 53  1  0
  8 54  1  0
  9 55  1  0
 13 56  1  0
 14 57  1  0
 15 58  1  0
 17 59  1  0
 20 60  1  0
 21 61  1  0
 22 62  1  0
 24 63  1  1
 26 64  1  0
 27 65  1  0
 29 66  1  0
 30 67  1  0
 34 68  1  0
 45 69  1  0
 47 70  1  0
M  END
>  <filename_input>  (1) 
8EAB_VN2_docked.sdf

>  <pdb_id>  (1) 
8EAB_VN2

>  <pose_rank>  (1) 
0

>  <num_atoms_heavy>  (1) 
49

>  <num_torsions>  (1) 
10

>  <pose>  (1) 
[6.805896599435006, -17.33716593770331, 21.034081320961885, -1.2045205104900096, 2.204877627571665, -2.389752957916069, -3.784381770634571, -1.417444719439154, 1.0403564396522094, -0.9522135187363432, 2.4929553137982543, -2.822412030025519, 1.3090064758335056, 5.381756132000609, 2.89189712994939, -2.9979514216004723]

>  <energy>  (1) 
-1058.6063726352224

>  <inter_energy>  (1) 
-1123.7008892136823

>  <intra_energy>  (1) 
59.71478597563008

>  <rmsd>  (1) 
8.03441

>  <sdf_rank>  (1) 
0

$$$$

     RDKit          3D

 70 74  0  0  0  0  0  0  0  0999 V2000
   12.3754  -17.6185   22.1792 C   0  0  0  0  0  0  0  0  0  0  0  0
   12.1048  -16.6177   21.2557 C   0  0  0  0  0  0  0  0  0  0  0  0
   10.8001  -16.4535   20.7970 C   0  0  0  0  0  0  0  0  0  0  0  0
   10.5571  -15.4126   19.8098 C   0  0  0  0  0  0  0  0  0  0  0  0
    9.8658  -14.2530   20.1691 C   0  0  0  0  0  0  0  0  0  0  0  0
    9.6423  -13.2419   19.2353 C   0  0  0  0  0  0  0  0  0  0  0  0
   10.1101  -13.3783   17.9283 C   0  0  0  0  0  0  0  0  0  0  0  0
   10.8048  -14.5356   17.5708 C   0  0  0  0  0  0  0  0  0  0  0  0
   11.0278  -15.5485   18.5033 C   0  0  0  0  0  0  0  0  0  0  0  0
    5.1433  -18.4922   21.2810 C   0  0  0  0  0  0  0  0  0  0  0  0
    9.8879  -12.3000   16.9297 C   0  0  1  0  0  0  0  0  0  0  0  0
    6.0154  -16.7616   18.6264 C   0  0  0  0  0  0  0  0  0  0  0  0
    6.3188  -15.3933   18.6241 C   0  0  0  0  0  0  0  0  0  0  0  0
    5.7433  -14.5320   17.6871 C   0  0  0  0  0  0  0  0  0  0  0  0
    4.8543  -15.0335   16.7351 C   0  0  0  0  0  0  0  0  0  0  0  0
    4.5450  -16.3948   16.7255 C   0  0  0  0  0  0  0  0  0  0  0  0
    5.1226  -17.2468   17.6678 C   0  0  0  0  0  0  0  0  0  0  0  0
    3.6048  -16.9711   15.7306 C   0  0  1  0  0  0  0  0  0  0  0  0
    4.3477  -18.2642   22.4903 C   0  0  0  0  0  0  0  0  0  0  0  0
    4.9470  -18.3569   23.7309 C   0  0  0  0  0  0  0  0  0  0  0  0
    2.9473  -17.9391   24.7862 C   0  0  0  0  0  0  0  0  0  0  0  0
    2.2656  -17.8254   23.5848 C   0  0  0  0  0  0  0  0  0  0  0  0
    2.9821  -17.9931   22.4062 C   0  0  0  0  0  0  0  0  0  0  0  0
    6.6243  -17.7251   19.6261 C   0  0  1  0  0  0  0  0  0  0  0  0
    2.2786  -17.8476   21.1510 C   0  0  0  0  0  0  0  0  0  0  0  0
    1.9814  -18.9674   20.3728 C   0  0  0  0  0  0  0  0  0  0  0  0
    1.3004  -18.8144   19.1639 C   0  0  0  0  0  0  0  0  0  0  0  0
    0.9310  -17.5417   18.7329 C   0  0  0  0  0  0  0  0  0  0  0  0
    1.2301  -16.4241   19.5104 C   0  0  0  0  0  0  0  0  0  0  0  0
    1.8994  -16.5770   20.7223 C   0  0  0  0  0  0  0  0  0  0  0  0
    0.1998  -17.3595   17.4553 C   0  0  1  0  0  0  0  0  0  0  0  0
    8.1163  -17.6405   19.6901 C   0  0  0  0  0  0  0  0  0  0  0  0
    9.8353  -17.3317   21.2959 C   0  0  0  0  0  0  0  0  0  0  0  0
   10.1981  -18.3175   22.1917 C   0  0  0  0  0  0  0  0  0  0  0  0
    8.7896  -11.5388   17.1710 F   0  0  0  0  0  0  0  0  0  0  0  0
   10.9501  -11.4421   16.9026 F   0  0  0  0  0  0  0  0  0  0  0  0
    9.7511  -12.7791   15.6604 F   0  0  0  0  0  0  0  0  0  0  0  0
    2.9982  -18.1070   16.1558 F   0  0  0  0  0  0  0  0  0  0  0  0
    2.6026  -16.1151   15.4072 F   0  0  0  0  0  0  0  0  0  0  0  0
    4.2116  -17.2823   14.5549 F   0  0  0  0  0  0  0  0  0  0  0  0
    0.6604  -18.1497   16.4537 F   0  0  0  0  0  0  0  0  0  0  0  0
   -1.1078  -17.6923   17.6201 F   0  0  0  0  0  0  0  0  0  0  0  0
    0.2184  -16.0657   17.0180 F   0  0  0  0  0  0  0  0  0  0  0  0
   11.4518  -18.4854   22.6547 N   0  0  0  0  0  0  0  0  0  0  0  0
    6.1202  -17.6064   20.9644 N   0  0  0  0  0  0  0  0  0  0  0  0
    4.2743  -18.1898   24.8890 N   0  0  0  0  0  0  0  0  0  0  0  0
    8.4884  -17.3246   20.9868 N   0  0  0  0  0  0  0  0  0  0  0  0
    4.8443  -19.4438   20.5825 O   0  0  0  0  0  0  0  0  0  0  0  0
    8.8187  -18.0398   18.7711 O   0  0  0  0  0  0  0  0  0  0  0  0
   13.4074  -17.7126   22.5482 H   0  0  0  0  0  0  0  0  0  0  0  0
   12.9103  -15.9632   20.8911 H   0  0  0  0  0  0  0  0  0  0  0  0
    9.4945  -14.1365   21.1980 H   0  0  0  0  0  0  0  0  0  0  0  0
    9.0954  -12.3341   19.5302 H   0  0  0  0  0  0  0  0  0  0  0  0
   11.1799  -14.6497   16.5430 H   0  0  0  0  0  0  0  0  0  0  0  0
   11.5756  -16.4557   18.2084 H   0  0  0  0  0  0  0  0  0  0  0  0
    7.0201  -14.9921   19.3706 H   0  0  0  0  0  0  0  0  0  0  0  0
    5.9903  -13.4602   17.6995 H   0  0  0  0  0  0  0  0  0  0  0  0
    4.3991  -14.3587   15.9953 H   0  0  0  0  0  0  0  0  0  0  0  0
    4.8709  -18.3175   17.6556 H   0  0  0  0  0  0  0  0  0  0  0  0
    6.0237  -18.5773   23.7775 H   0  0  0  0  0  0  0  0  0  0  0  0
    2.3732  -17.8178   25.7167 H   0  0  0  0  0  0  0  0  0  0  0  0
    1.1874  -17.6083   23.5650 H   0  0  0  0  0  0  0  0  0  0  0  0
    6.3156  -18.7027   19.2274 H   0  0  0  0  0  0  0  0  0  0  0  0
    2.2834  -19.9694   20.7117 H   0  0  0  0  0  0  0  0  0  0  0  0
    1.0561  -19.6961   18.5531 H   0  0  0  0  0  0  0  0  0  0  0  0
    0.9374  -15.4210   19.1667 H   0  0  0  0  0  0  0  0  0  0  0  0
    2.1282  -15.6961   21.3401 H   0  0  0  0  0  0  0  0  0  0  0  0
    9.4178  -19.0061   22.5481 H   0  0  0  0  0  0  0  0  0  0  0  0
    6.4721  -16.9046   21.6312 H   0  0  0  0  0  0  0  0  0  0  0  0
    7.7821  -17.0914   21.6993 H   0  0  0  0  0  0  0  0  0  0  0  0
  1  2  2  0
  1 44  1  0
  2  3  1  0
  3  4  1  0
  3 33  2  0
  4  5  2  0
  4  9  1  0
  5  6  1  0
  6  7  2  0
  7  8  1  0
  7 11  1  0
  8  9  2  0
 10 19  1  0
 10 45  1  0
 10 48  2  0
 11 35  1  1
 11 36  1  0
 11 37  1  0
 12 13  2  0
 12 17  1  0
 12 24  1  0
 13 14  1  0
 14 15  2  0
 15 16  1  0
 16 17  2  0
 16 18  1  0
 18 38  1  1
 18 39  1  0
 18 40  1  0
 19 20  2  0
 19 23  1  0
 20 46  1  0
 21 22  1  0
 21 46  2  0
 22 23  2  0
 23 25  1  0
 24 32  1  0
 24 45  1  0
 25 26  2  0
 25 30  1  0
 26 27  1  0
 27 28  2  0
 28 29  1  0
 28 31  1  0
 29 30  2  0
 31 41  1  6
 31 42  1  0
 31 43  1  0
 32 47  1  0
 32 49  2  0
 33 34  1  0
 33 47  1  0
 34 44  2  0
  1 50  1  0
  2 51  1  0
  5 52  1  0
  6 53  1  0
  8 54  1  0
  9 55  1  0
 13 56  1  0
 14 57  1  0
 15 58  1  0
 17 59  1  0
 20 60  1  0
 21 61  1  0
 22 62  1  0
 24 63  1  6
 26 64  1  0
 27 65  1  0
 29 66  1  0
 30 67  1  0
 34 68  1  0
 45 69  1  0
 47 70  1  0
M  END
>  <filename_input>  (2) 
8EAB_VN2_docked.sdf

>  <pdb_id>  (2) 
8EAB_VN2

>  <pose_rank>  (2) 
1

>  <num_atoms_heavy>  (2) 
49

>  <num_torsions>  (2) 
10

>  <pose>  (2) 
[6.6242510256835, -17.725064359235905, 19.626121407193995, 3.9637283248971023, -4.417883485569949, 0.1963645922880184, 0.31587525465423527, -2.3558986150884276, 0.33087925361177306, 5.8301160009295705, -0.8326895121569403, 0.16096803946351615, -2.4272358107180305, -3.9253329161463983, 5.2132458824646175, 0.5343790416466938]

>  <energy>  (2) 
-961.1230969807164

>  <inter_energy>  (2) 
-1016.142183489586

>  <intra_energy>  (2) 
62.40588487255113

>  <rmsd>  (2) 
1.65512

>  <sdf_rank>  (2) 
0

$$$$

     RDKit          3D

 70 74  0  0  0  0  0  0  0  0999 V2000
   12.3385  -19.3283   22.1475 C   0  0  0  0  0  0  0  0  0  0  0  0
   12.1966  -18.0782   21.5603 C   0  0  0  0  0  0  0  0  0  0  0  0
   10.9537  -17.7034   21.0560 C   0  0  0  0  0  0  0  0  0  0  0  0
   10.8472  -16.3974   20.4236 C   0  0  0  0  0  0  0  0  0  0  0  0
   10.0613  -15.3990   21.0045 C   0  0  0  0  0  0  0  0  0  0  0  0
    9.9658  -14.1386   20.4158 C   0  0  0  0  0  0  0  0  0  0  0  0
   10.6582  -13.8606   19.2372 C   0  0  0  0  0  0  0  0  0  0  0  0
   11.4470  -14.8575   18.6594 C   0  0  0  0  0  0  0  0  0  0  0  0
   11.5424  -16.1191   19.2462 C   0  0  0  0  0  0  0  0  0  0  0  0
    5.3700  -19.1645   21.1886 C   0  0  0  0  0  0  0  0  0  0  0  0
   10.5727  -12.5159   18.6098 C   0  0  1  0  0  0  0  0  0  0  0  0
    6.4022  -17.9486   18.1299 C   0  0  0  0  0  0  0  0  0  0  0  0
    5.3439  -18.2902   17.2771 C   0  0  0  0  0  0  0  0  0  0  0  0
    5.0282  -17.4972   16.1715 C   0  0  0  0  0  0  0  0  0  0  0  0
    5.7710  -16.3455   15.9067 C   0  0  0  0  0  0  0  0  0  0  0  0
    6.8266  -15.9930   16.7495 C   0  0  0  0  0  0  0  0  0  0  0  0
    7.1363  -16.7937   17.8497 C   0  0  0  0  0  0  0  0  0  0  0  0
    7.6429  -14.7764   16.5055 C   0  0  1  0  0  0  0  0  0  0  0  0
    4.5350  -18.6654   22.2845 C   0  0  0  0  0  0  0  0  0  0  0  0
    4.9934  -18.7450   23.5846 C   0  0  0  0  0  0  0  0  0  0  0  0
    3.0354  -17.8441   24.3856 C   0  0  0  0  0  0  0  0  0  0  0  0
    2.4974  -17.7240   23.1139 C   0  0  0  0  0  0  0  0  0  0  0  0
    3.2648  -18.1460   22.0351 C   0  0  0  0  0  0  0  0  0  0  0  0
    6.7699  -18.7842   19.3403 C   0  0  1  0  0  0  0  0  0  0  0  0
    2.7167  -17.9961   20.7052 C   0  0  0  0  0  0  0  0  0  0  0  0
    2.8472  -16.7880   20.0184 C   0  0  0  0  0  0  0  0  0  0  0  0
    2.3154  -16.6560   18.7345 C   0  0  0  0  0  0  0  0  0  0  0  0
    1.6449  -17.7281   18.1485 C   0  0  0  0  0  0  0  0  0  0  0  0
    1.5139  -18.9333   18.8364 C   0  0  0  0  0  0  0  0  0  0  0  0
    2.0543  -19.0696   20.1128 C   0  0  0  0  0  0  0  0  0  0  0  0
    1.0800  -17.6098   16.7821 C   0  0  1  0  0  0  0  0  0  0  0  0
    8.2462  -18.9539   19.5107 C   0  0  0  0  0  0  0  0  0  0  0  0
    9.9168  -18.6329   21.1646 C   0  0  0  0  0  0  0  0  0  0  0  0
   10.1536  -19.8658   21.7388 C   0  0  0  0  0  0  0  0  0  0  0  0
   10.7332  -11.4866   19.4808 F   0  0  0  0  0  0  0  0  0  0  0  0
   11.5399  -12.3662   17.6575 F   0  0  0  0  0  0  0  0  0  0  0  0
    9.3814  -12.3041   17.9811 F   0  0  0  0  0  0  0  0  0  0  0  0
    6.9910  -13.8224   15.7957 F   0  0  0  0  0  0  0  0  0  0  0  0
    8.0372  -14.1765   17.6570 F   0  0  0  0  0  0  0  0  0  0  0  0
    8.7877  -15.0416   15.8224 F   0  0  0  0  0  0  0  0  0  0  0  0
    1.0407  -16.3337   16.3241 F   0  0  0  0  0  0  0  0  0  0  0  0
    1.8542  -18.2973   15.9013 F   0  0  0  0  0  0  0  0  0  0  0  0
   -0.1772  -18.1347   16.6850 F   0  0  0  0  0  0  0  0  0  0  0  0
   11.3453  -20.2424   22.2414 N   0  0  0  0  0  0  0  0  0  0  0  0
    6.2357  -18.3123   20.5857 N   0  0  0  0  0  0  0  0  0  0  0  0
    4.2704  -18.3343   24.6477 N   0  0  0  0  0  0  0  0  0  0  0  0
    8.6115  -18.4508   20.7489 N   0  0  0  0  0  0  0  0  0  0  0  0
    5.1998  -20.3163   20.8317 O   0  0  0  0  0  0  0  0  0  0  0  0
    8.9014  -19.6506   18.7473 O   0  0  0  0  0  0  0  0  0  0  0  0
   13.3220  -19.5927   22.5634 H   0  0  0  0  0  0  0  0  0  0  0  0
   13.0545  -17.3929   21.4942 H   0  0  0  0  0  0  0  0  0  0  0  0
    9.5129  -15.6092   21.9346 H   0  0  0  0  0  0  0  0  0  0  0  0
    9.3426  -13.3613   20.8822 H   0  0  0  0  0  0  0  0  0  0  0  0
   11.9989  -14.6455   17.7317 H   0  0  0  0  0  0  0  0  0  0  0  0
   12.1664  -16.8959   18.7802 H   0  0  0  0  0  0  0  0  0  0  0  0
    4.7535  -19.1956   17.4813 H   0  0  0  0  0  0  0  0  0  0  0  0
    4.1955  -17.7798   15.5106 H   0  0  0  0  0  0  0  0  0  0  0  0
    5.5255  -15.7180   15.0372 H   0  0  0  0  0  0  0  0  0  0  0  0
    7.9719  -16.5108   18.5068 H   0  0  0  0  0  0  0  0  0  0  0  0
    5.9952  -19.1631   23.7622 H   0  0  0  0  0  0  0  0  0  0  0  0
    2.4192  -17.5202   25.2373 H   0  0  0  0  0  0  0  0  0  0  0  0
    1.4911  -17.3062   22.9629 H   0  0  0  0  0  0  0  0  0  0  0  0
    6.3002  -19.7516   19.1088 H   0  0  0  0  0  0  0  0  0  0  0  0
    3.3684  -15.9410   20.4883 H   0  0  0  0  0  0  0  0  0  0  0  0
    2.4252  -15.7084   18.1868 H   0  0  0  0  0  0  0  0  0  0  0  0
    0.9836  -19.7772   18.3709 H   0  0  0  0  0  0  0  0  0  0  0  0
    1.9583  -20.0232   20.6526 H   0  0  0  0  0  0  0  0  0  0  0  0
    9.3207  -20.5825   21.7889 H   0  0  0  0  0  0  0  0  0  0  0  0
    6.4895  -17.3993   20.9895 H   0  0  0  0  0  0  0  0  0  0  0  0
    7.9304  -17.9556   21.3419 H   0  0  0  0  0  0  0  0  0  0  0  0
  1  2  2  0
  1 44  1  0
  2  3  1  0
  3  4  1  0
  3 33  2  0
  4  5  2  0
  4  9  1  0
  5  6  1  0
  6  7  2  0
  7  8  1  0
  7 11  1  0
  8  9  2  0
 10 19  1  0
 10 45  1  0
 10 48  2  0
 11 35  1  1
 11 36  1  0
 11 37  1  0
 12 13  2  0
 12 17  1  0
 12 24  1  0
 13 14  1  0
 14 15  2  0
 15 16  1  0
 16 17  2  0
 16 18  1  0
 18 38  1  6
 18 39  1  0
 18 40  1  0
 19 20  2  0
 19 23  1  0
 20 46  1  0
 21 22  1  0
 21 46  2  0
 22 23  2  0
 23 25  1  0
 24 32  1  0
 24 45  1  0
 25 26  2  0
 25 30  1  0
 26 27  1  0
 27 28  2  0
 28 29  1  0
 28 31  1  0
 29 30  2  0
 31 41  1  6
 31 42  1  0
 31 43  1  0
 32 47  1  0
 32 49  2  0
 33 34  1  0
 33 47  1  0
 34 44  2  0
  1 50  1  0
  2 51  1  0
  5 52  1  0
  6 53  1  0
  8 54  1  0
  9 55  1  0
 13 56  1  0
 14 57  1  0
 15 58  1  0
 17 59  1  0
 20 60  1  0
 21 61  1  0
 22 62  1  0
 24 63  1  6
 26 64  1  0
 27 65  1  0
 29 66  1  0
 30 67  1  0
 34 68  1  0
 45 69  1  0
 47 70  1  0
M  END
>  <filename_input>  (3) 
8EAB_VN2_docked.sdf

>  <pdb_id>  (3) 
8EAB_VN2

>  <pose_rank>  (3) 
2

>  <num_atoms_heavy>  (3) 
49

>  <num_torsions>  (3) 
10

>  <pose>  (3) 
[6.76988143157386, -18.78422726403959, 19.340295752225902, -0.40037800480816443, 0.21046106731568165, -0.22865330790130367, -2.6565703051284553, -11.794791252655822, 0.6707801794777847, -0.8604845896392499, 8.79529904683232, -5.63086621245829, 3.8519878756534776, 2.893332725940979, 5.119305280346699, 8.103597775875118]

>  <energy>  (3) 
-958.4533236300819

>  <inter_energy>  (3) 
-980.0573765109643

>  <intra_energy>  (3) 
35.814310155814

>  <rmsd>  (3) 
1.82346

>  <sdf_rank>  (3) 
0

$$$$

     RDKit          3D

 70 74  0  0  0  0  0  0  0  0999 V2000
    0.3079  -18.7457   18.9712 C   0  0  0  0  0  0  0  0  0  0  0  0
    0.5278  -18.6409   20.3381 C   0  0  0  0  0  0  0  0  0  0  0  0
    1.7475  -18.1454   20.7924 C   0  0  0  0  0  0  0  0  0  0  0  0
    1.9541  -18.0741   22.2309 C   0  0  0  0  0  0  0  0  0  0  0  0
    2.7698  -19.0114   22.8694 C   0  0  0  0  0  0  0  0  0  0  0  0
    2.9881  -18.9422   24.2448 C   0  0  0  0  0  0  0  0  0  0  0  0
    2.3931  -17.9310   24.9995 C   0  0  0  0  0  0  0  0  0  0  0  0
    1.5814  -16.9918   24.3601 C   0  0  0  0  0  0  0  0  0  0  0  0
    1.3609  -17.0607   22.9846 C   0  0  0  0  0  0  0  0  0  0  0  0
    8.4747  -17.8978   20.9327 C   0  0  0  0  0  0  0  0  0  0  0  0
    2.6308  -17.8417   26.4640 C   0  0  1  0  0  0  0  0  0  0  0  0
    6.3440  -16.2309   19.3044 C   0  0  0  0  0  0  0  0  0  0  0  0
    6.6496  -14.9148   19.6766 C   0  0  0  0  0  0  0  0  0  0  0  0
    6.7106  -13.8951   18.7239 C   0  0  0  0  0  0  0  0  0  0  0  0
    6.4672  -14.1833   17.3800 C   0  0  0  0  0  0  0  0  0  0  0  0
    6.1635  -15.4906   16.9959 C   0  0  0  0  0  0  0  0  0  0  0  0
    6.1017  -16.5018   17.9556 C   0  0  0  0  0  0  0  0  0  0  0  0
    5.8978  -15.8419   15.5775 C   0  0  1  0  0  0  0  0  0  0  0  0
    9.7365  -18.6022   20.6900 C   0  0  0  0  0  0  0  0  0  0  0  0
    9.8737  -19.9169   21.0892 C   0  0  0  0  0  0  0  0  0  0  0  0
   12.0535  -19.9661   20.3588 C   0  0  0  0  0  0  0  0  0  0  0  0
   12.0034  -18.6506   19.9252 C   0  0  0  0  0  0  0  0  0  0  0  0
   10.8161  -17.9491   20.0955 C   0  0  0  0  0  0  0  0  0  0  0  0
    6.2730  -17.3621   20.3112 C   0  0  1  0  0  0  0  0  0  0  0  0
   10.7527  -16.5851   19.6189 C   0  0  0  0  0  0  0  0  0  0  0  0
   11.3162  -15.5484   20.3645 C   0  0  0  0  0  0  0  0  0  0  0  0
   11.2502  -14.2361   19.8932 C   0  0  0  0  0  0  0  0  0  0  0  0
   10.6104  -13.9650   18.6852 C   0  0  0  0  0  0  0  0  0  0  0  0
   10.0466  -15.0012   17.9426 C   0  0  0  0  0  0  0  0  0  0  0  0
   10.1221  -16.3123   18.4065 C   0  0  0  0  0  0  0  0  0  0  0  0
   10.5370  -12.5783   18.1640 C   0  0  1  0  0  0  0  0  0  0  0  0
    5.0025  -18.1469   20.2248 C   0  0  0  0  0  0  0  0  0  0  0  0
    2.6909  -17.7929   19.8245 C   0  0  0  0  0  0  0  0  0  0  0  0
    2.3986  -17.9565   18.4853 C   0  0  0  0  0  0  0  0  0  0  0  0
    3.1814  -18.9587   27.0054 F   0  0  0  0  0  0  0  0  0  0  0  0
    3.4846  -16.8156   26.7518 F   0  0  0  0  0  0  0  0  0  0  0  0
    1.4887  -17.5973   27.1678 F   0  0  0  0  0  0  0  0  0  0  0  0
    7.0236  -15.9618   14.8310 F   0  0  0  0  0  0  0  0  0  0  0  0
    5.2412  -17.0226   15.4494 F   0  0  0  0  0  0  0  0  0  0  0  0
    5.1204  -14.9226   14.9466 F   0  0  0  0  0  0  0  0  0  0  0  0
    9.2756  -12.0806   18.1329 F   0  0  0  0  0  0  0  0  0  0  0  0
   11.2462  -11.7440   18.9696 F   0  0  0  0  0  0  0  0  0  0  0  0
   11.0722  -12.4570   16.9132 F   0  0  0  0  0  0  0  0  0  0  0  0
    1.2216  -18.4240   18.0264 N   0  0  0  0  0  0  0  0  0  0  0  0
    7.3665  -18.2899   20.2565 N   0  0  0  0  0  0  0  0  0  0  0  0
   11.0134  -20.6215   20.9271 N   0  0  0  0  0  0  0  0  0  0  0  0
    3.9458  -17.2655   20.0630 N   0  0  0  0  0  0  0  0  0  0  0  0
    8.4987  -16.9474   21.6937 O   0  0  0  0  0  0  0  0  0  0  0  0
    5.0108  -19.3620   20.0805 O   0  0  0  0  0  0  0  0  0  0  0  0
   -0.6724  -19.1140   18.6346 H   0  0  0  0  0  0  0  0  0  0  0  0
   -0.2511  -18.9453   21.0527 H   0  0  0  0  0  0  0  0  0  0  0  0
    3.2440  -19.8113   22.2819 H   0  0  0  0  0  0  0  0  0  0  0  0
    3.6314  -19.6870   24.7362 H   0  0  0  0  0  0  0  0  0  0  0  0
    1.1111  -16.1894   24.9473 H   0  0  0  0  0  0  0  0  0  0  0  0
    0.7184  -16.3151   22.4934 H   0  0  0  0  0  0  0  0  0  0  0  0
    6.8442  -14.6815   20.7338 H   0  0  0  0  0  0  0  0  0  0  0  0
    6.9500  -12.8667   19.0322 H   0  0  0  0  0  0  0  0  0  0  0  0
    6.5145  -13.3833   16.6265 H   0  0  0  0  0  0  0  0  0  0  0  0
    5.8582  -17.5286   17.6451 H   0  0  0  0  0  0  0  0  0  0  0  0
    9.0134  -20.4135   21.5616 H   0  0  0  0  0  0  0  0  0  0  0  0
   12.9994  -20.5133   20.2331 H   0  0  0  0  0  0  0  0  0  0  0  0
   12.8791  -18.1751   19.4593 H   0  0  0  0  0  0  0  0  0  0  0  0
    6.3242  -16.8259   21.2703 H   0  0  0  0  0  0  0  0  0  0  0  0
   11.8118  -15.7653   21.3223 H   0  0  0  0  0  0  0  0  0  0  0  0
   11.7020  -13.4183   20.4737 H   0  0  0  0  0  0  0  0  0  0  0  0
    9.5419  -14.7833   16.9898 H   0  0  0  0  0  0  0  0  0  0  0  0
    9.6846  -17.1313   17.8167 H   0  0  0  0  0  0  0  0  0  0  0  0
    3.1720  -17.6896   17.7500 H   0  0  0  0  0  0  0  0  0  0  0  0
    7.3138  -19.1821   19.7446 H   0  0  0  0  0  0  0  0  0  0  0  0
    4.0912  -16.2474   20.1188 H   0  0  0  0  0  0  0  0  0  0  0  0
  1  2  2  0
  1 44  1  0
  2  3  1  0
  3  4  1  0
  3 33  2  0
  4  5  2  0
  4  9  1  0
  5  6  1  0
  6  7  2  0
  7  8  1  0
  7 11  1  0
  8  9  2  0
 10 19  1  0
 10 45  1  0
 10 48  2  0
 11 35  1  1
 11 36  1  0
 11 37  1  0
 12 13  2  0
 12 17  1  0
 12 24  1  0
 13 14  1  0
 14 15  2  0
 15 16  1  0
 16 17  2  0
 16 18  1  0
 18 38  1  6
 18 39  1  0
 18 40  1  0
 19 20  2  0
 19 23  1  0
 20 46  1  0
 21 22  1  0
 21 46  2  0
 22 23  2  0
 23 25  1  0
 24 32  1  0
 24 45  1  0
 25 26  2  0
 25 30  1  0
 26 27  1  0
 27 28  2  0
 28 29  1  0
 28 31  1  0
 29 30  2  0
 31 41  1  6
 31 42  1  0
 31 43  1  0
 32 47  1  0
 32 49  2  0
 33 34  1  0
 33 47  1  0
 34 44  2  0
  1 50  1  0
  2 51  1  0
  5 52  1  0
  6 53  1  0
  8 54  1  0
  9 55  1  0
 13 56  1  0
 14 57  1  0
 15 58  1  0
 17 59  1  0
 20 60  1  0
 21 61  1  0
 22 62  1  0
 24 63  1  1
 26 64  1  0
 27 65  1  0
 29 66  1  0
 30 67  1  0
 34 68  1  0
 45 69  1  0
 47 70  1  0
M  END
>  <filename_input>  (4) 
8EAB_VN2_docked.sdf

>  <pdb_id>  (4) 
8EAB_VN2

>  <pose_rank>  (4) 
3

>  <num_atoms_heavy>  (4) 
49

>  <num_torsions>  (4) 
10

>  <pose>  (4) 
[6.2730214840408065, -17.362149625296237, 20.31124941277525, -0.31637316816293287, 2.288660549988641, -1.9123207240782025, 3.460910402148121, 1.7118633878584175, -6.19868769151912, -6.749199385037575, -0.34733432441344547, -1.105462709135996, 0.9955539007686737, 2.760748792252479, -3.6389981522924106, 0.7533206339063327]

>  <energy>  (4) 
-968.6788275626747

>  <inter_energy>  (4) 
-999.7861039230679

>  <intra_energy>  (4) 
36.28724624538715

>  <rmsd>  (4) 
8.60467

>  <sdf_rank>  (4) 
0

$$$$

     RDKit          3D

 70 74  0  0  0  0  0  0  0  0999 V2000
    0.7730  -18.7082   17.8543 C   0  0  0  0  0  0  0  0  0  0  0  0
    0.9537  -18.8029   19.2277 C   0  0  0  0  0  0  0  0  0  0  0  0
    2.1325  -18.3206   19.7910 C   0  0  0  0  0  0  0  0  0  0  0  0
    2.3002  -18.4600   21.2297 C   0  0  0  0  0  0  0  0  0  0  0  0
    1.4112  -19.2468   21.9662 C   0  0  0  0  0  0  0  0  0  0  0  0
    1.5727  -19.4008   23.3426 C   0  0  0  0  0  0  0  0  0  0  0  0
    2.6288  -18.7695   23.9999 C   0  0  0  0  0  0  0  0  0  0  0  0
    3.5195  -17.9867   23.2626 C   0  0  0  0  0  0  0  0  0  0  0  0
    3.3584  -17.8305   21.8860 C   0  0  0  0  0  0  0  0  0  0  0  0
    8.5907  -17.8587   20.9380 C   0  0  0  0  0  0  0  0  0  0  0  0
    2.8162  -18.9386   25.4647 C   0  0  1  0  0  0  0  0  0  0  0  0
    6.7512  -16.2592   18.8476 C   0  0  0  0  0  0  0  0  0  0  0  0
    6.5841  -16.5476   17.4863 C   0  0  0  0  0  0  0  0  0  0  0  0
    6.7800  -15.5634   16.5148 C   0  0  0  0  0  0  0  0  0  0  0  0
    7.1451  -14.2715   16.8970 C   0  0  0  0  0  0  0  0  0  0  0  0
    7.3129  -13.9708   18.2498 C   0  0  0  0  0  0  0  0  0  0  0  0
    7.1182  -14.9618   19.2128 C   0  0  0  0  0  0  0  0  0  0  0  0
    7.7004  -12.6099   18.7011 C   0  0  1  0  0  0  0  0  0  0  0  0
    9.8666  -18.5793   20.9293 C   0  0  0  0  0  0  0  0  0  0  0  0
    9.9468  -19.8350   21.4979 C   0  0  0  0  0  0  0  0  0  0  0  0
   12.1957  -19.9585   21.0348 C   0  0  0  0  0  0  0  0  0  0  0  0
   12.2060  -18.7056   20.4423 C   0  0  0  0  0  0  0  0  0  0  0  0
   11.0124  -17.9962   20.3885 C   0  0  0  0  0  0  0  0  0  0  0  0
    6.5434  -17.3019   19.9284 C   0  0  1  0  0  0  0  0  0  0  0  0
   11.0149  -16.7005   19.7461 C   0  0  0  0  0  0  0  0  0  0  0  0
   10.4766  -16.5437   18.4679 C   0  0  0  0  0  0  0  0  0  0  0  0
   10.4832  -15.2877   17.8588 C   0  0  0  0  0  0  0  0  0  0  0  0
   11.0390  -14.1973   18.5253 C   0  0  0  0  0  0  0  0  0  0  0  0
   11.5777  -14.3558   19.8011 C   0  0  0  0  0  0  0  0  0  0  0  0
   11.5612  -15.6063   20.4142 C   0  0  0  0  0  0  0  0  0  0  0  0
   11.0482  -12.8532   17.8979 C   0  0  1  0  0  0  0  0  0  0  0  0
    5.2755  -18.0775   19.7607 C   0  0  0  0  0  0  0  0  0  0  0  0
    3.0779  -17.7759   18.9189 C   0  0  0  0  0  0  0  0  0  0  0  0
    2.8275  -17.7473   17.5615 C   0  0  0  0  0  0  0  0  0  0  0  0
    1.6566  -19.0021   26.1683 F   0  0  0  0  0  0  0  0  0  0  0  0
    3.4913  -20.0948   25.7336 F   0  0  0  0  0  0  0  0  0  0  0  0
    3.5475  -17.9310   26.0208 F   0  0  0  0  0  0  0  0  0  0  0  0
    8.5167  -12.6121   19.7840 F   0  0  0  0  0  0  0  0  0  0  0  0
    8.3605  -11.9132   17.7415 F   0  0  0  0  0  0  0  0  0  0  0  0
    6.6288  -11.8435   19.0353 F   0  0  0  0  0  0  0  0  0  0  0  0
   12.2646  -12.4899   17.4205 F   0  0  0  0  0  0  0  0  0  0  0  0
   10.2090  -12.8370   16.8286 F   0  0  0  0  0  0  0  0  0  0  0  0
   10.6148  -11.8738   18.7455 F   0  0  0  0  0  0  0  0  0  0  0  0
    1.6897  -18.1990   16.9993 N   0  0  0  0  0  0  0  0  0  0  0  0
    7.6171  -18.2426   20.0755 N   0  0  0  0  0  0  0  0  0  0  0  0
   11.0921  -20.5469   21.5547 N   0  0  0  0  0  0  0  0  0  0  0  0
    4.2952  -17.2273   19.2750 N   0  0  0  0  0  0  0  0  0  0  0  0
    8.4895  -16.9034   21.6864 O   0  0  0  0  0  0  0  0  0  0  0  0
    5.2605  -19.2993   19.8270 O   0  0  0  0  0  0  0  0  0  0  0  0
   -0.1768  -19.0707   17.4342 H   0  0  0  0  0  0  0  0  0  0  0  0
    0.1761  -19.2529   19.8624 H   0  0  0  0  0  0  0  0  0  0  0  0
    0.5764  -19.7493   21.4557 H   0  0  0  0  0  0  0  0  0  0  0  0
    0.8653  -20.0219   23.9117 H   0  0  0  0  0  0  0  0  0  0  0  0
    4.3568  -17.4881   23.7727 H   0  0  0  0  0  0  0  0  0  0  0  0
    4.0666  -17.2102   21.3171 H   0  0  0  0  0  0  0  0  0  0  0  0
    6.2948  -17.5633   17.1787 H   0  0  0  0  0  0  0  0  0  0  0  0
    6.6467  -15.8060   15.4502 H   0  0  0  0  0  0  0  0  0  0  0  0
    7.3000  -13.4934   16.1350 H   0  0  0  0  0  0  0  0  0  0  0  0
    7.2559  -14.7175   20.2765 H   0  0  0  0  0  0  0  0  0  0  0  0
    9.0340  -20.2762   21.9248 H   0  0  0  0  0  0  0  0  0  0  0  0
   13.1455  -20.5110   21.0862 H   0  0  0  0  0  0  0  0  0  0  0  0
   13.1331  -18.2846   20.0262 H   0  0  0  0  0  0  0  0  0  0  0  0
    6.4960  -16.6884   20.8402 H   0  0  0  0  0  0  0  0  0  0  0  0
   10.0478  -17.4089   17.9411 H   0  0  0  0  0  0  0  0  0  0  0  0
   10.0509  -15.1590   16.8555 H   0  0  0  0  0  0  0  0  0  0  0  0
   12.0161  -13.4929   20.3239 H   0  0  0  0  0  0  0  0  0  0  0  0
   11.9787  -15.7300   21.4243 H   0  0  0  0  0  0  0  0  0  0  0  0
    3.6022  -17.3314   16.9006 H   0  0  0  0  0  0  0  0  0  0  0  0
    7.6460  -19.1377   19.5666 H   0  0  0  0  0  0  0  0  0  0  0  0
    4.4687  -16.2163   19.1821 H   0  0  0  0  0  0  0  0  0  0  0  0
  1  2  2  0
  1 44  1  0
  2  3  1  0
  3  4  1  0
  3 33  2  0
  4  5  2  0
  4  9  1  0
  5  6  1  0
  6  7  2  0
  7  8  1  0
  7 11  1  0
  8  9  2  0
 10 19  1  0
 10 45  1  0
 10 48  2  0
 11 35  1  1
 11 36  1  0
 11 37  1  0
 12 13  2  0
 12 17  1  0
 12 24  1  0
 13 14  1  0
 14 15  2  0
 15 16  1  0
 16 17  2  0
 16 18  1  0
 18 38  1  1
 18 39  1  0
 18 40  1  0
 19 20  2  0
 19 23  1  0
 20 46  1  0
 21 22  1  0
 21 46  2  0
 22 23  2  0
 23 25  1  0
 24 32  1  0
 24 45  1  0
 25 26  2  0
 25 30  1  0
 26 27  1  0
 27 28  2  0
 28 29  1  0
 28 31  1  0
 29 30  2  0
 31 41  1  6
 31 42  1  0
 31 43  1  0
 32 47  1  0
 32 49  2  0
 33 34  1  0
 33 47  1  0
 34 44  2  0
  1 50  1  0
  2 51  1  0
  5 52  1  0
  6 53  1  0
  8 54  1  0
  9 55  1  0
 13 56  1  0
 14 57  1  0
 15 58  1  0
 17 59  1  0
 20 60  1  0
 21 61  1  0
 22 62  1  0
 24 63  1  1
 26 64  1  0
 27 65  1  0
 29 66  1  0
 30 67  1  0
 34 68  1  0
 45 69  1  0
 47 70  1  0
M  END
>  <filename_input>  (5) 
8EAB_VN2_docked.sdf

>  <pdb_id>  (5) 
8EAB_VN2

>  <pose_rank>  (5) 
4

>  <num_atoms_heavy>  (5) 
49

>  <num_torsions>  (5) 
10

>  <pose>  (5) 
[6.543399131290536, -17.301936487129502, 19.92841375756645, 0.22105840262571919, -2.460244572745199, 2.266887235782407, 0.3928779849795623, 4.09881743488289, 0.18564565033991862, 5.683977982713504, 2.8481411560948384, -0.9455629621889188, 1.1013600538970452, -3.8858934048584413, 1.006746224230221, 0.36756070989653555]

>  <energy>  (5) 
-883.723235788907

>  <inter_energy>  (5) 
-1036.3447869213398

>  <intra_energy>  (5) 
154.82652990734226

>  <rmsd>  (5) 
8.71287

>  <sdf_rank>  (5) 
0

$$$$

     RDKit          3D

 70 74  0  0  0  0  0  0  0  0999 V2000
    7.2230  -15.2328   14.6891 C   0  0  0  0  0  0  0  0  0  0  0  0
    5.9250  -15.6814   14.8929 C   0  0  0  0  0  0  0  0  0  0  0  0
    5.6700  -16.5665   15.9376 C   0  0  0  0  0  0  0  0  0  0  0  0
    4.3034  -17.0370   16.1060 C   0  0  0  0  0  0  0  0  0  0  0  0
    3.8165  -18.0763   15.3096 C   0  0  0  0  0  0  0  0  0  0  0  0
    2.5141  -18.5463   15.4742 C   0  0  0  0  0  0  0  0  0  0  0  0
    1.6818  -17.9819   16.4410 C   0  0  0  0  0  0  0  0  0  0  0  0
    2.1704  -16.9460   17.2397 C   0  0  0  0  0  0  0  0  0  0  0  0
    3.4724  -16.4739   17.0752 C   0  0  0  0  0  0  0  0  0  0  0  0
    8.7734  -17.9328   20.1929 C   0  0  0  0  0  0  0  0  0  0  0  0
    0.2964  -18.4853   16.6324 C   0  0  1  0  0  0  0  0  0  0  0  0
    5.2427  -18.1280   20.9507 C   0  0  0  0  0  0  0  0  0  0  0  0
    5.3141  -17.4799   22.1913 C   0  0  0  0  0  0  0  0  0  0  0  0
    4.1713  -17.2998   22.9739 C   0  0  0  0  0  0  0  0  0  0  0  0
    2.9367  -17.7670   22.5202 C   0  0  0  0  0  0  0  0  0  0  0  0
    2.8516  -18.4127   21.2854 C   0  0  0  0  0  0  0  0  0  0  0  0
    3.9997  -18.5907   20.5123 C   0  0  0  0  0  0  0  0  0  0  0  0
    1.5589  -18.9252   20.7639 C   0  0  1  0  0  0  0  0  0  0  0  0
   10.1140  -18.3017   20.6556 C   0  0  0  0  0  0  0  0  0  0  0  0
   10.3596  -19.5920   21.0816 C   0  0  0  0  0  0  0  0  0  0  0  0
   12.5353  -19.0614   21.6033 C   0  0  0  0  0  0  0  0  0  0  0  0
   12.3786  -17.7466   21.1936 C   0  0  0  0  0  0  0  0  0  0  0  0
   11.1368  -17.3549   20.7085 C   0  0  0  0  0  0  0  0  0  0  0  0
    6.4619  -18.3372   20.0742 C   0  0  1  0  0  0  0  0  0  0  0  0
   10.9787  -15.9908   20.2547 C   0  0  0  0  0  0  0  0  0  0  0  0
   11.2459  -14.9240   21.1141 C   0  0  0  0  0  0  0  0  0  0  0  0
   11.0913  -13.6117   20.6640 C   0  0  0  0  0  0  0  0  0  0  0  0
   10.6583  -13.3725   19.3612 C   0  0  0  0  0  0  0  0  0  0  0  0
   10.3901  -14.4389   18.5046 C   0  0  0  0  0  0  0  0  0  0  0  0
   10.5552  -15.7485   18.9493 C   0  0  0  0  0  0  0  0  0  0  0  0
   10.4956  -11.9851   18.8621 C   0  0  1  0  0  0  0  0  0  0  0  0
    6.6578  -17.2461   19.0700 C   0  0  0  0  0  0  0  0  0  0  0  0
    6.7598  -16.9617   16.7167 C   0  0  0  0  0  0  0  0  0  0  0  0
    8.0233  -16.4876   16.4254 C   0  0  0  0  0  0  0  0  0  0  0  0
    0.1856  -19.4602   17.5711 F   0  0  0  0  0  0  0  0  0  0  0  0
   -0.5326  -17.4753   17.0294 F   0  0  0  0  0  0  0  0  0  0  0  0
   -0.2413  -18.9930   15.4868 F   0  0  0  0  0  0  0  0  0  0  0  0
    0.8568  -18.0028   20.0603 F   0  0  0  0  0  0  0  0  0  0  0  0
    1.7187  -19.9839   19.9300 F   0  0  0  0  0  0  0  0  0  0  0  0
    0.7313  -19.3604   21.7504 F   0  0  0  0  0  0  0  0  0  0  0  0
    9.3616  -11.8016   18.1410 F   0  0  0  0  0  0  0  0  0  0  0  0
   10.4131  -11.1239   19.9106 F   0  0  0  0  0  0  0  0  0  0  0  0
   11.5531  -11.5714   18.1031 F   0  0  0  0  0  0  0  0  0  0  0  0
    8.2880  -15.6234   15.4266 N   0  0  0  0  0  0  0  0  0  0  0  0
    7.6965  -18.5054   20.7860 N   0  0  0  0  0  0  0  0  0  0  0  0
   11.5588  -19.9984   21.5489 N   0  0  0  0  0  0  0  0  0  0  0  0
    6.7182  -17.8108   17.8062 N   0  0  0  0  0  0  0  0  0  0  0  0
    8.6951  -17.1671   19.2493 O   0  0  0  0  0  0  0  0  0  0  0  0
    6.5268  -16.0678   19.3731 O   0  0  0  0  0  0  0  0  0  0  0  0
    7.3968  -14.5133   13.8754 H   0  0  0  0  0  0  0  0  0  0  0  0
    5.1088  -15.3423   14.2381 H   0  0  0  0  0  0  0  0  0  0  0  0
    4.4664  -18.5281   14.5457 H   0  0  0  0  0  0  0  0  0  0  0  0
    2.1419  -19.3643   14.8400 H   0  0  0  0  0  0  0  0  0  0  0  0
    1.5217  -16.4977   18.0067 H   0  0  0  0  0  0  0  0  0  0  0  0
    3.8446  -15.6566   17.7103 H   0  0  0  0  0  0  0  0  0  0  0  0
    6.2837  -17.1078   22.5537 H   0  0  0  0  0  0  0  0  0  0  0  0
    4.2441  -16.7907   23.9463 H   0  0  0  0  0  0  0  0  0  0  0  0
    2.0342  -17.6270   23.1333 H   0  0  0  0  0  0  0  0  0  0  0  0
    3.9247  -19.1036   19.5421 H   0  0  0  0  0  0  0  0  0  0  0  0
    9.5390  -20.3232   21.0381 H   0  0  0  0  0  0  0  0  0  0  0  0
   13.5165  -19.3635   21.9982 H   0  0  0  0  0  0  0  0  0  0  0  0
   13.2139  -17.0332   21.2510 H   0  0  0  0  0  0  0  0  0  0  0  0
    6.2257  -19.2837   19.5661 H   0  0  0  0  0  0  0  0  0  0  0  0
   11.5780  -15.1171   22.1448 H   0  0  0  0  0  0  0  0  0  0  0  0
   11.3105  -12.7688   21.3359 H   0  0  0  0  0  0  0  0  0  0  0  0
   10.0480  -14.2462   17.4771 H   0  0  0  0  0  0  0  0  0  0  0  0
   10.3517  -16.5903   18.2710 H   0  0  0  0  0  0  0  0  0  0  0  0
    8.8627  -16.8358   17.0452 H   0  0  0  0  0  0  0  0  0  0  0  0
    7.7598  -19.0199   21.6761 H   0  0  0  0  0  0  0  0  0  0  0  0
    6.7316  -18.8332   17.6823 H   0  0  0  0  0  0  0  0  0  0  0  0
  1  2  2  0
  1 44  1  0
  2  3  1  0
  3  4  1  0
  3 33  2  0
  4  5  2  0
  4  9  1  0
  5  6  1  0
  6  7  2  0
  7  8  1  0
  7 11  1  0
  8  9  2  0
 10 19  1  0
 10 45  1  0
 10 48  2  0
 11 35  1  1
 11 36  1  0
 11 37  1  0
 12 13  2  0
 12 17  1  0
 12 24  1  0
 13 14  1  0
 14 15  2  0
 15 16  1  0
 16 17  2  0
 16 18  1  0
 18 38  1  6
 18 39  1  0
 18 40  1  0
 19 20  2  0
 19 23  1  0
 20 46  1  0
 21 22  1  0
 21 46  2  0
 22 23  2  0
 23 25  1  0
 24 32  1  0
 24 45  1  0
 25 26  2  0
 25 30  1  0
 26 27  1  0
 27 28  2  0
 28 29  1  0
 28 31  1  0
 29 30  2  0
 31 41  1  6
 31 42  1  0
 31 43  1  0
 32 47  1  0
 32 49  2  0
 33 34  1  0
 33 47  1  0
 34 44  2  0
  1 50  1  0
  2 51  1  0
  5 52  1  0
  6 53  1  0
  8 54  1  0
  9 55  1  0
 13 56  1  0
 14 57  1  0
 15 58  1  0
 17 59  1  0
 20 60  1  0
 21 61  1  0
 22 62  1  0
 24 63  1  6
 26 64  1  0
 27 65  1  0
 29 66  1  0
 30 67  1  0
 34 68  1  0
 45 69  1  0
 47 70  1  0
M  END
>  <filename_input>  (6) 
8EAB_VN2_docked.sdf

>  <pdb_id>  (6) 
8EAB_VN2

>  <pose_rank>  (6) 
5

>  <num_atoms_heavy>  (6) 
49

>  <num_torsions>  (6) 
10

>  <pose>  (6) 
[6.461894778187515, -18.33716708703163, 20.07423831943894, 0.18647811913822973, 1.4624877092018649, 0.8948159172574569, -0.4036452921758112, 1.8695219454529204, 8.705630940959567, 1.3182894002012793, -6.250812628849127, -1.5144458261756597, 12.131225179105781, 12.075092388057335, 2.2327500208649607, 2.6151638947229574]

>  <energy>  (6) 
-775.5677244421211

>  <inter_energy>  (6) 
-1024.366355145903

>  <intra_energy>  (6) 
255.16893556960218

>  <rmsd>  (6) 
8.31796

>  <sdf_rank>  (6) 
0

$$$$

     RDKit          3D

 70 74  0  0  0  0  0  0  0  0999 V2000
   12.0369  -15.0099   20.5674 C   0  0  0  0  0  0  0  0  0  0  0  0
   12.1349  -16.3904   20.4573 C   0  0  0  0  0  0  0  0  0  0  0  0
   10.9701  -17.1463   20.3504 C   0  0  0  0  0  0  0  0  0  0  0  0
   11.1085  -18.5921   20.2635 C   0  0  0  0  0  0  0  0  0  0  0  0
   11.7417  -19.1708   19.1608 C   0  0  0  0  0  0  0  0  0  0  0  0
   11.8947  -20.5541   19.0756 C   0  0  0  0  0  0  0  0  0  0  0  0
   11.4166  -21.3769   20.0956 C   0  0  0  0  0  0  0  0  0  0  0  0
   10.7877  -20.7976   21.1995 C   0  0  0  0  0  0  0  0  0  0  0  0
   10.6325  -19.4142   21.2855 C   0  0  0  0  0  0  0  0  0  0  0  0
    5.3049  -18.8263   20.8924 C   0  0  0  0  0  0  0  0  0  0  0  0
   11.5869  -22.8515   20.0194 C   0  0  1  0  0  0  0  0  0  0  0  0
    5.7693  -17.7403   18.1890 C   0  0  0  0  0  0  0  0  0  0  0  0
    4.4602  -18.2402   18.1681 C   0  0  0  0  0  0  0  0  0  0  0  0
    3.5290  -17.7751   17.2367 C   0  0  0  0  0  0  0  0  0  0  0  0
    3.8990  -16.7975   16.3117 C   0  0  0  0  0  0  0  0  0  0  0  0
    5.1995  -16.2900   16.3230 C   0  0  0  0  0  0  0  0  0  0  0  0
    6.1236  -16.7634   17.2555 C   0  0  0  0  0  0  0  0  0  0  0  0
    5.6359  -15.2492   15.3576 C   0  0  1  0  0  0  0  0  0  0  0  0
    4.6389  -18.5494   22.1679 C   0  0  0  0  0  0  0  0  0  0  0  0
    5.3052  -18.7884   23.3535 C   0  0  0  0  0  0  0  0  0  0  0  0
    3.4673  -18.1457   24.5768 C   0  0  0  0  0  0  0  0  0  0  0  0
    2.7255  -17.8762   23.4375 C   0  0  0  0  0  0  0  0  0  0  0  0
    3.3245  -18.0839   22.2010 C   0  0  0  0  0  0  0  0  0  0  0  0
    6.8041  -18.2197   19.1880 C   0  0  1  0  0  0  0  0  0  0  0  0
    2.5619  -17.7771   21.0111 C   0  0  0  0  0  0  0  0  0  0  0  0
    1.5980  -18.6694   20.5391 C   0  0  0  0  0  0  0  0  0  0  0  0
    0.8671  -18.3615   19.3904 C   0  0  0  0  0  0  0  0  0  0  0  0
    1.1121  -17.1689   18.7121 C   0  0  0  0  0  0  0  0  0  0  0  0
    2.0763  -16.2796   19.1838 C   0  0  0  0  0  0  0  0  0  0  0  0
    2.7979  -16.5808   20.3364 C   0  0  0  0  0  0  0  0  0  0  0  0
    0.3403  -16.8203   17.4944 C   0  0  1  0  0  0  0  0  0  0  0  0
    8.1271  -17.5384   19.0363 C   0  0  0  0  0  0  0  0  0  0  0  0
    9.7577  -16.4531   20.3751 C   0  0  0  0  0  0  0  0  0  0  0  0
    9.7517  -15.0798   20.5162 C   0  0  0  0  0  0  0  0  0  0  0  0
   12.6804  -23.3178   20.6757 F   0  0  0  0  0  0  0  0  0  0  0  0
   10.5107  -23.4897   20.5665 F   0  0  0  0  0  0  0  0  0  0  0  0
   11.6877  -23.3034   18.7368 F   0  0  0  0  0  0  0  0  0  0  0  0
    4.6242  -14.7569   14.6004 F   0  0  0  0  0  0  0  0  0  0  0  0
    6.1962  -14.1755   15.9699 F   0  0  0  0  0  0  0  0  0  0  0  0
    6.5754  -15.7030   14.4866 F   0  0  0  0  0  0  0  0  0  0  0  0
   -0.8913  -16.3192   17.7624 F   0  0  0  0  0  0  0  0  0  0  0  0
    0.9916  -15.8527   16.7962 F   0  0  0  0  0  0  0  0  0  0  0  0
    0.1922  -17.8788   16.6440 F   0  0  0  0  0  0  0  0  0  0  0  0
   10.8673  -14.3309   20.6104 N   0  0  0  0  0  0  0  0  0  0  0  0
    6.4108  -18.1134   20.5639 N   0  0  0  0  0  0  0  0  0  0  0  0
    4.7480  -18.5865   24.5661 N   0  0  0  0  0  0  0  0  0  0  0  0
    8.4978  -17.0095   20.2621 N   0  0  0  0  0  0  0  0  0  0  0  0
    4.7916  -19.6504   20.1573 O   0  0  0  0  0  0  0  0  0  0  0  0
    8.8097  -17.6853   18.0314 O   0  0  0  0  0  0  0  0  0  0  0  0
   12.9704  -14.4307   20.6234 H   0  0  0  0  0  0  0  0  0  0  0  0
   13.1196  -16.8807   20.4546 H   0  0  0  0  0  0  0  0  0  0  0  0
   12.1229  -18.5295   18.3525 H   0  0  0  0  0  0  0  0  0  0  0  0
   12.3938  -20.9979   18.2015 H   0  0  0  0  0  0  0  0  0  0  0  0
   10.4107  -21.4390   22.0098 H   0  0  0  0  0  0  0  0  0  0  0  0
   10.1343  -18.9707   22.1601 H   0  0  0  0  0  0  0  0  0  0  0  0
    4.1618  -19.0095   18.8956 H   0  0  0  0  0  0  0  0  0  0  0  0
    2.5058  -18.1788   17.2321 H   0  0  0  0  0  0  0  0  0  0  0  0
    3.1687  -16.4283   15.5767 H   0  0  0  0  0  0  0  0  0  0  0  0
    7.1472  -16.3608   17.2554 H   0  0  0  0  0  0  0  0  0  0  0  0
    6.3391  -19.1610   23.3075 H   0  0  0  0  0  0  0  0  0  0  0  0
    2.9847  -17.9916   25.5532 H   0  0  0  0  0  0  0  0  0  0  0  0
    1.6915  -17.5081   23.5101 H   0  0  0  0  0  0  0  0  0  0  0  0
    6.8951  -19.2869   18.9374 H   0  0  0  0  0  0  0  0  0  0  0  0
    1.4145  -19.6143   21.0717 H   0  0  0  0  0  0  0  0  0  0  0  0
    0.0999  -19.0581   19.0215 H   0  0  0  0  0  0  0  0  0  0  0  0
    2.2673  -15.3395   18.6455 H   0  0  0  0  0  0  0  0  0  0  0  0
    3.5530  -15.8755   20.7135 H   0  0  0  0  0  0  0  0  0  0  0  0
    8.7791  -14.5672   20.5539 H   0  0  0  0  0  0  0  0  0  0  0  0
    6.9271  -17.5414   21.2474 H   0  0  0  0  0  0  0  0  0  0  0  0
    7.8534  -17.0304   21.0653 H   0  0  0  0  0  0  0  0  0  0  0  0
  1  2  2  0
  1 44  1  0
  2  3  1  0
  3  4  1  0
  3 33  2  0
  4  5  2  0
  4  9  1  0
  5  6  1  0
  6  7  2  0
  7  8  1  0
  7 11  1  0
  8  9  2  0
 10 19  1  0
 10 45  1  0
 10 48  2  0
 11 35  1  1
 11 36  1  0
 11 37  1  0
 12 13  2  0
 12 17  1  0
 12 24  1  0
 13 14  1  0
 14 15  2  0
 15 16  1  0
 16 17  2  0
 16 18  1  0
 18 38  1  6
 18 39  1  0
 18 40  1  0
 19 20  2  0
 19 23  1  0
 20 46  1  0
 21 22  1  0
 21 46  2  0
 22 23  2  0
 23 25  1  0
 24 32  1  0
 24 45  1  0
 25 26  2  0
 25 30  1  0
 26 27  1  0
 27 28  2  0
 28 29  1  0
 28 31  1  0
 29 30  2  0
 31 41  1  1
 31 42  1  0
 31 43  1  0
 32 47  1  0
 32 49  2  0
 33 34  1  0
 33 47  1  0
 34 44  2  0
  1 50  1  0
  2 51  1  0
  5 52  1  0
  6 53  1  0
  8 54  1  0
  9 55  1  0
 13 56  1  0
 14 57  1  0
 15 58  1  0
 17 59  1  0
 20 60  1  0
 21 61  1  0
 22 62  1  0
 24 63  1  6
 26 64  1  0
 27 65  1  0
 29 66  1  0
 30 67  1  0
 34 68  1  0
 45 69  1  0
 47 70  1  0
M  END
>  <filename_input>  (7) 
8EAB_VN2_docked.sdf

>  <pdb_id>  (7) 
8EAB_VN2

>  <pose_rank>  (7) 
6

>  <num_atoms_heavy>  (7) 
49

>  <num_torsions>  (7) 
10

>  <pose>  (7) 
[6.804092038785245, -18.219701347988803, 19.18797869044471, -0.41124453364309904, 0.3181800133918364, 0.40363396941077295, -1.910798495176354, 0.46367002671386, 5.971917177846994, 12.164643226157503, -0.35181433314017485, -4.016058464410278, -8.620804769915638, -12.583388497884865, -0.30565929591254354, 2.669487495132113]

>  <energy>  (7) 
-712.2411340936208

>  <inter_energy>  (7) 
-945.0422215067246

>  <intra_energy>  (7) 
220.42915067403274

>  <rmsd>  (7) 
4.23999

>  <sdf_rank>  (7) 
0

$$$$

     RDKit          3D

 70 74  0  0  0  0  0  0  0  0999 V2000
   12.6588  -15.2825   20.7855 C   0  0  0  0  0  0  0  0  0  0  0  0
   12.5788  -16.6668   20.7149 C   0  0  0  0  0  0  0  0  0  0  0  0
   11.3691  -17.2586   20.3599 C   0  0  0  0  0  0  0  0  0  0  0  0
   11.3136  -18.7121   20.3216 C   0  0  0  0  0  0  0  0  0  0  0  0
   11.4897  -19.3889   19.1121 C   0  0  0  0  0  0  0  0  0  0  0  0
   11.4552  -20.7820   19.0670 C   0  0  0  0  0  0  0  0  0  0  0  0
   11.2455  -21.5167   20.2341 C   0  0  0  0  0  0  0  0  0  0  0  0
   11.0738  -20.8399   21.4434 C   0  0  0  0  0  0  0  0  0  0  0  0
   11.1065  -19.4463   21.4899 C   0  0  0  0  0  0  0  0  0  0  0  0
    5.2362  -18.7104   21.3748 C   0  0  0  0  0  0  0  0  0  0  0  0
   11.2203  -23.0024   20.1976 C   0  0  1  0  0  0  0  0  0  0  0  0
    6.5698  -16.6638   18.9321 C   0  0  0  0  0  0  0  0  0  0  0  0
    6.2625  -17.1175   17.6422 C   0  0  0  0  0  0  0  0  0  0  0  0
    5.9971  -16.2163   16.6086 C   0  0  0  0  0  0  0  0  0  0  0  0
    6.0343  -14.8431   16.8562 C   0  0  0  0  0  0  0  0  0  0  0  0
    6.3373  -14.3782   18.1372 C   0  0  0  0  0  0  0  0  0  0  0  0
    6.6043  -15.2865   19.1625 C   0  0  0  0  0  0  0  0  0  0  0  0
    6.3875  -12.9262   18.4452 C   0  0  1  0  0  0  0  0  0  0  0  0
    4.0480  -18.6776   22.2317 C   0  0  0  0  0  0  0  0  0  0  0  0
    4.1502  -19.0501   23.5574 C   0  0  0  0  0  0  0  0  0  0  0  0
    1.8960  -18.7277   23.8763 C   0  0  0  0  0  0  0  0  0  0  0  0
    1.7023  -18.3373   22.5606 C   0  0  0  0  0  0  0  0  0  0  0  0
    2.8049  -18.3124   21.7153 C   0  0  0  0  0  0  0  0  0  0  0  0
    6.8596  -17.6137   20.0777 C   0  0  1  0  0  0  0  0  0  0  0  0
    2.6102  -17.8789   20.3493 C   0  0  0  0  0  0  0  0  0  0  0  0
    3.1471  -16.6685   19.9080 C   0  0  0  0  0  0  0  0  0  0  0  0
    2.9539  -16.2616   18.5868 C   0  0  0  0  0  0  0  0  0  0  0  0
    2.2145  -17.0606   17.7167 C   0  0  0  0  0  0  0  0  0  0  0  0
    1.6776  -18.2684   18.1594 C   0  0  0  0  0  0  0  0  0  0  0  0
    1.8796  -18.6806   19.4744 C   0  0  0  0  0  0  0  0  0  0  0  0
    2.0052  -16.6492   16.3071 C   0  0  1  0  0  0  0  0  0  0  0  0
    8.2300  -17.4413   20.6517 C   0  0  0  0  0  0  0  0  0  0  0  0
   10.2933  -16.4043   20.1069 C   0  0  0  0  0  0  0  0  0  0  0  0
   10.4544  -15.0386   20.2282 C   0  0  0  0  0  0  0  0  0  0  0  0
   11.7679  -23.5387   19.0767 F   0  0  0  0  0  0  0  0  0  0  0  0
   11.9171  -23.5221   21.2508 F   0  0  0  0  0  0  0  0  0  0  0  0
    9.9575  -23.5090   20.2877 F   0  0  0  0  0  0  0  0  0  0  0  0
    5.4093  -12.2110   17.8364 F   0  0  0  0  0  0  0  0  0  0  0  0
    6.2604  -12.6724   19.7722 F   0  0  0  0  0  0  0  0  0  0  0  0
    7.5629  -12.3523   18.0756 F   0  0  0  0  0  0  0  0  0  0  0  0
    0.8256  -16.0120   16.1015 F   0  0  0  0  0  0  0  0  0  0  0  0
    2.9727  -15.7702   15.9340 F   0  0  0  0  0  0  0  0  0  0  0  0
    2.0783  -17.6987   15.4360 F   0  0  0  0  0  0  0  0  0  0  0  0
   11.6184  -14.4474   20.5600 N   0  0  0  0  0  0  0  0  0  0  0  0
    5.9200  -17.5589   21.1610 N   0  0  0  0  0  0  0  0  0  0  0  0
    3.0960  -19.0744   24.3999 N   0  0  0  0  0  0  0  0  0  0  0  0
    9.0219  -16.7859   19.7227 N   0  0  0  0  0  0  0  0  0  0  0  0
    5.5183  -19.7699   20.8448 O   0  0  0  0  0  0  0  0  0  0  0  0
    8.4573  -17.6488   21.8361 O   0  0  0  0  0  0  0  0  0  0  0  0
   13.6309  -14.8358   21.0413 H   0  0  0  0  0  0  0  0  0  0  0  0
   13.4592  -17.2880   20.9365 H   0  0  0  0  0  0  0  0  0  0  0  0
   11.6570  -18.8175   18.1872 H   0  0  0  0  0  0  0  0  0  0  0  0
   11.5939  -21.3033   18.1083 H   0  0  0  0  0  0  0  0  0  0  0  0
   10.9112  -21.4117   22.3689 H   0  0  0  0  0  0  0  0  0  0  0  0
   10.9689  -18.9254   22.4489 H   0  0  0  0  0  0  0  0  0  0  0  0
    6.2299  -18.1984   17.4409 H   0  0  0  0  0  0  0  0  0  0  0  0
    5.7592  -16.5881   15.6010 H   0  0  0  0  0  0  0  0  0  0  0  0
    5.8256  -14.1300   16.0451 H   0  0  0  0  0  0  0  0  0  0  0  0
    6.8457  -14.9119   20.1682 H   0  0  0  0  0  0  0  0  0  0  0  0
    5.1377  -19.3408   23.9453 H   0  0  0  0  0  0  0  0  0  0  0  0
    1.0180  -18.7579   24.5383 H   0  0  0  0  0  0  0  0  0  0  0  0
    0.7037  -18.0552   22.1957 H   0  0  0  0  0  0  0  0  0  0  0  0
    6.7708  -18.5978   19.5944 H   0  0  0  0  0  0  0  0  0  0  0  0
    3.7217  -16.0359   20.6006 H   0  0  0  0  0  0  0  0  0  0  0  0
    3.3841  -15.3129   18.2334 H   0  0  0  0  0  0  0  0  0  0  0  0
    1.0940  -18.8962   17.4699 H   0  0  0  0  0  0  0  0  0  0  0  0
    1.4630  -19.6375   19.8218 H   0  0  0  0  0  0  0  0  0  0  0  0
    9.5812  -14.3957   20.0432 H   0  0  0  0  0  0  0  0  0  0  0  0
    5.7764  -16.7127   21.7304 H   0  0  0  0  0  0  0  0  0  0  0  0
    8.6733  -16.5889   18.7737 H   0  0  0  0  0  0  0  0  0  0  0  0
  1  2  2  0
  1 44  1  0
  2  3  1  0
  3  4  1  0
  3 33  2  0
  4  5  2  0
  4  9  1  0
  5  6  1  0
  6  7  2  0
  7  8  1  0
  7 11  1  0
  8  9  2  0
 10 19  1  0
 10 45  1  0
 10 48  2  0
 11 35  1  6
 11 36  1  0
 11 37  1  0
 12 13  2  0
 12 17  1  0
 12 24  1  0
 13 14  1  0
 14 15  2  0
 15 16  1  0
 16 17  2  0
 16 18  1  0
 18 38  1  6
 18 39  1  0
 18 40  1  0
 19 20  2  0
 19 23  1  0
 20 46  1  0
 21 22  1  0
 21 46  2  0
 22 23  2  0
 23 25  1  0
 24 32  1  0
 24 45  1  0
 25 26  2  0
 25 30  1  0
 26 27  1  0
 27 28  2  0
 28 29  1  0
 28 31  1  0
 29 30  2  0
 31 41  1  1
 31 42  1  0
 31 43  1  0
 32 47  1  0
 32 49  2  0
 33 34  1  0
 33 47  1  0
 34 44  2  0
  1 50  1  0
  2 51  1  0
  5 52  1  0
  6 53  1  0
  8 54  1  0
  9 55  1  0
 13 56  1  0
 14 57  1  0
 15 58  1  0
 17 59  1  0
 20 60  1  0
 21 61  1  0
 22 62  1  0
 24 63  1  6
 26 64  1  0
 27 65  1  0
 29 66  1  0
 30 67  1  0
 34 68  1  0
 45 69  1  0
 47 70  1  0
M  END
>  <filename_input>  (8) 
8EAB_VN2_docked.sdf

>  <pdb_id>  (8) 
8EAB_VN2

>  <pose_rank>  (8) 
7

>  <num_atoms_heavy>  (8) 
49

>  <num_torsions>  (8) 
10

>  <pose>  (8) 
[6.85956595310623, -17.61366866898897, 20.077708134652692, 5.477491046111742, 2.5300580279766227, -0.33245617288829116, -2.980365425143275, 1.0336638935870273, 0.6821321053248902, -7.275797024196187, -3.3119226283268977, -0.8010202719840755, -4.890856693699271, -3.872616760052852, -0.8560959446114761, -4.976083960711286]

>  <energy>  (8) 
-878.2056249826346

>  <inter_energy>  (8) 
-941.4885009472204

>  <intra_energy>  (8) 
64.41804763575026

>  <rmsd>  (8) 
4.33831

>  <sdf_rank>  (8) 
0

$$$$

     RDKit          3D

 70 74  0  0  0  0  0  0  0  0999 V2000
   10.9242  -12.3374   18.7125 C   0  0  0  0  0  0  0  0  0  0  0  0
   11.1947  -13.6883   18.8840 C   0  0  0  0  0  0  0  0  0  0  0  0
   10.1335  -14.5815   19.0090 C   0  0  0  0  0  0  0  0  0  0  0  0
   10.4532  -15.9861   19.2142 C   0  0  0  0  0  0  0  0  0  0  0  0
   11.4702  -16.3516   20.0994 C   0  0  0  0  0  0  0  0  0  0  0  0
   11.7734  -17.6952   20.3162 C   0  0  0  0  0  0  0  0  0  0  0  0
   11.0600  -18.6917   19.6498 C   0  0  0  0  0  0  0  0  0  0  0  0
   10.0407  -18.3259   18.7684 C   0  0  0  0  0  0  0  0  0  0  0  0
    9.7373  -16.9823   18.5494 C   0  0  0  0  0  0  0  0  0  0  0  0
    5.4754  -15.2483   18.0171 C   0  0  0  0  0  0  0  0  0  0  0  0
   11.3675  -20.1268   19.8847 C   0  0  1  0  0  0  0  0  0  0  0  0
    5.8830  -17.3180   21.0293 C   0  0  0  0  0  0  0  0  0  0  0  0
    6.6615  -18.4799   20.9390 C   0  0  0  0  0  0  0  0  0  0  0  0
    6.4512  -19.5540   21.8068 C   0  0  0  0  0  0  0  0  0  0  0  0
    5.4554  -19.4761   22.7817 C   0  0  0  0  0  0  0  0  0  0  0  0
    4.6742  -18.3236   22.8834 C   0  0  0  0  0  0  0  0  0  0  0  0
    4.8897  -17.2571   22.0096 C   0  0  0  0  0  0  0  0  0  0  0  0
    3.6042  -18.1978   23.9057 C   0  0  1  0  0  0  0  0  0  0  0  0
    4.8168  -15.3823   16.7150 C   0  0  0  0  0  0  0  0  0  0  0  0
    5.3319  -14.7224   15.6168 C   0  0  0  0  0  0  0  0  0  0  0  0
    3.6282  -15.5018   14.2837 C   0  0  0  0  0  0  0  0  0  0  0  0
    3.0443  -16.1985   15.3300 C   0  0  0  0  0  0  0  0  0  0  0  0
    3.6520  -16.1372   16.5781 C   0  0  0  0  0  0  0  0  0  0  0  0
    6.0863  -16.1325   20.1065 C   0  0  1  0  0  0  0  0  0  0  0  0
    3.0601  -16.8857   17.6649 C   0  0  0  0  0  0  0  0  0  0  0  0
    1.7363  -16.6564   18.0430 C   0  0  0  0  0  0  0  0  0  0  0  0
    1.1755  -17.3864   19.0924 C   0  0  0  0  0  0  0  0  0  0  0  0
    1.9446  -18.3328   19.7668 C   0  0  0  0  0  0  0  0  0  0  0  0
    3.2671  -18.5594   19.3892 C   0  0  0  0  0  0  0  0  0  0  0  0
    3.8238  -17.8397   18.3347 C   0  0  0  0  0  0  0  0  0  0  0  0
    1.3641  -19.1240   20.8792 C   0  0  1  0  0  0  0  0  0  0  0  0
    7.4811  -15.5933   20.1412 C   0  0  0  0  0  0  0  0  0  0  0  0
    8.8437  -14.0468   18.9661 C   0  0  0  0  0  0  0  0  0  0  0  0
    8.6665  -12.6855   18.8205 C   0  0  0  0  0  0  0  0  0  0  0  0
   10.8958  -20.9596   18.9215 F   0  0  0  0  0  0  0  0  0  0  0  0
   12.7172  -20.3279   19.9376 F   0  0  0  0  0  0  0  0  0  0  0  0
   10.8662  -20.5850   21.0671 F   0  0  0  0  0  0  0  0  0  0  0  0
    2.7180  -17.2062   23.6405 F   0  0  0  0  0  0  0  0  0  0  0  0
    2.8668  -19.3305   24.0273 F   0  0  0  0  0  0  0  0  0  0  0  0
    4.0937  -17.9468   25.1486 F   0  0  0  0  0  0  0  0  0  0  0  0
    2.1734  -20.1245   21.3080 F   0  0  0  0  0  0  0  0  0  0  0  0
    1.1596  -18.3228   21.9581 F   0  0  0  0  0  0  0  0  0  0  0  0
    0.1507  -19.6654   20.5628 F   0  0  0  0  0  0  0  0  0  0  0  0
    9.6795  -11.8075   18.6876 N   0  0  0  0  0  0  0  0  0  0  0  0
    5.7411  -16.3686   18.7338 N   0  0  0  0  0  0  0  0  0  0  0  0
    4.7647  -14.7733   14.3932 N   0  0  0  0  0  0  0  0  0  0  0  0
    7.6625  -14.7591   19.0499 N   0  0  0  0  0  0  0  0  0  0  0  0
    5.6997  -14.1214   18.4204 O   0  0  0  0  0  0  0  0  0  0  0  0
    8.1907  -15.7203   21.1300 O   0  0  0  0  0  0  0  0  0  0  0  0
   11.7770  -11.6537   18.5887 H   0  0  0  0  0  0  0  0  0  0  0  0
   12.2334  -14.0484   18.9208 H   0  0  0  0  0  0  0  0  0  0  0  0
   12.0370  -15.5725   20.6302 H   0  0  0  0  0  0  0  0  0  0  0  0
   12.5774  -17.9703   21.0148 H   0  0  0  0  0  0  0  0  0  0  0  0
    9.4710  -19.1054   18.2413 H   0  0  0  0  0  0  0  0  0  0  0  0
    8.9325  -16.7076   17.8516 H   0  0  0  0  0  0  0  0  0  0  0  0
    7.4490  -18.5469   20.1740 H   0  0  0  0  0  0  0  0  0  0  0  0
    7.0695  -20.4599   21.7220 H   0  0  0  0  0  0  0  0  0  0  0  0
    5.2868  -20.3197   23.4673 H   0  0  0  0  0  0  0  0  0  0  0  0
    4.2674  -16.3540   22.0941 H   0  0  0  0  0  0  0  0  0  0  0  0
    6.2479  -14.1270   15.7454 H   0  0  0  0  0  0  0  0  0  0  0  0
    3.1365  -15.5432   13.3006 H   0  0  0  0  0  0  0  0  0  0  0  0
    2.1256  -16.7836   15.1766 H   0  0  0  0  0  0  0  0  0  0  0  0
    5.3826  -15.3930   20.5162 H   0  0  0  0  0  0  0  0  0  0  0  0
    1.1355  -15.9015   17.5146 H   0  0  0  0  0  0  0  0  0  0  0  0
    0.1294  -17.2149   19.3863 H   0  0  0  0  0  0  0  0  0  0  0  0
    3.8713  -19.3069   19.9241 H   0  0  0  0  0  0  0  0  0  0  0  0
    4.8649  -18.0241   18.0310 H   0  0  0  0  0  0  0  0  0  0  0  0
    7.6382  -12.2949   18.8125 H   0  0  0  0  0  0  0  0  0  0  0  0
    5.6984  -17.3132   18.3255 H   0  0  0  0  0  0  0  0  0  0  0  0
    6.9383  -14.6723   18.3226 H   0  0  0  0  0  0  0  0  0  0  0  0
  1  2  2  0
  1 44  1  0
  2  3  1  0
  3  4  1  0
  3 33  2  0
  4  5  2  0
  4  9  1  0
  5  6  1  0
  6  7  2  0
  7  8  1  0
  7 11  1  0
  8  9  2  0
 10 19  1  0
 10 45  1  0
 10 48  2  0
 11 35  1  6
 11 36  1  0
 11 37  1  0
 12 13  2  0
 12 17  1  0
 12 24  1  0
 13 14  1  0
 14 15  2  0
 15 16  1  0
 16 17  2  0
 16 18  1  0
 18 38  1  6
 18 39  1  0
 18 40  1  0
 19 20  2  0
 19 23  1  0
 20 46  1  0
 21 22  1  0
 21 46  2  0
 22 23  2  0
 23 25  1  0
 24 32  1  0
 24 45  1  0
 25 26  2  0
 25 30  1  0
 26 27  1  0
 27 28  2  0
 28 29  1  0
 28 31  1  0
 29 30  2  0
 31 41  1  1
 31 42  1  0
 31 43  1  0
 32 47  1  0
 32 49  2  0
 33 34  1  0
 33 47  1  0
 34 44  2  0
  1 50  1  0
  2 51  1  0
  5 52  1  0
  6 53  1  0
  8 54  1  0
  9 55  1  0
 13 56  1  0
 14 57  1  0
 15 58  1  0
 17 59  1  0
 20 60  1  0
 21 61  1  0
 22 62  1  0
 24 63  1  1
 26 64  1  0
 27 65  1  0
 29 66  1  0
 30 67  1  0
 34 68  1  0
 45 69  1  0
 47 70  1  0
M  END
>  <filename_input>  (9) 
8EAB_VN2_docked.sdf

>  <pdb_id>  (9) 
8EAB_VN2

>  <pose_rank>  (9) 
8

>  <num_atoms_heavy>  (9) 
49

>  <num_torsions>  (9) 
10

>  <pose>  (9) 
[6.086342308527194, -16.132468974973587, 20.106503315093104, 2.903224837970945, 0.6254300475870349, 0.5383020400841476, 0.2309309886082747, -2.5013754351660613, 1.3955544324544753, -1.5774919669899319, 0.02241964362544173, -2.414557599539765, 4.618540129451598, 2.150833447154361, 1.5695863193146458, -1.8187715588651872]

>  <energy>  (9) 
-599.1085851616597

>  <inter_energy>  (9) 
-901.1116854885856

>  <intra_energy>  (9) 
306.8181829061327

>  <rmsd>  (9) 
6.09528

>  <sdf_rank>  (9) 
0

$$$$

     RDKit          3D

 70 74  0  0  0  0  0  0  0  0999 V2000
   12.8678  -14.7313   20.5001 C   0  0  0  0  0  0  0  0  0  0  0  0
   12.7664  -16.1124   20.6000 C   0  0  0  0  0  0  0  0  0  0  0  0
   11.5408  -16.7223   20.3437 C   0  0  0  0  0  0  0  0  0  0  0  0
   11.4636  -18.1685   20.4836 C   0  0  0  0  0  0  0  0  0  0  0  0
   10.7331  -18.7335   21.5319 C   0  0  0  0  0  0  0  0  0  0  0  0
   10.6385  -20.1183   21.6654 C   0  0  0  0  0  0  0  0  0  0  0  0
   11.2736  -20.9563   20.7487 C   0  0  0  0  0  0  0  0  0  0  0  0
   12.0000  -20.3910   19.6987 C   0  0  0  0  0  0  0  0  0  0  0  0
   12.0968  -19.0062   19.5647 C   0  0  0  0  0  0  0  0  0  0  0  0
    6.1141  -18.6048   19.8198 C   0  0  0  0  0  0  0  0  0  0  0  0
   11.1673  -22.4334   20.8757 C   0  0  1  0  0  0  0  0  0  0  0  0
    6.6208  -16.4225   17.7335 C   0  0  0  0  0  0  0  0  0  0  0  0
    6.0014  -16.7204   16.5121 C   0  0  0  0  0  0  0  0  0  0  0  0
    5.1366  -15.8074   15.9043 C   0  0  0  0  0  0  0  0  0  0  0  0
    4.8787  -14.5799   16.5165 C   0  0  0  0  0  0  0  0  0  0  0  0
    5.4879  -14.2716   17.7342 C   0  0  0  0  0  0  0  0  0  0  0  0
    6.3530  -15.1891   18.3320 C   0  0  0  0  0  0  0  0  0  0  0  0
    5.2417  -12.9777   18.4207 C   0  0  1  0  0  0  0  0  0  0  0  0
    5.4466  -18.7992   21.1097 C   0  0  0  0  0  0  0  0  0  0  0  0
    6.1827  -19.1988   22.2074 C   0  0  0  0  0  0  0  0  0  0  0  0
    4.2936  -19.2626   23.5168 C   0  0  0  0  0  0  0  0  0  0  0  0
    3.4789  -18.8607   22.4700 C   0  0  0  0  0  0  0  0  0  0  0  0
    4.0685  -18.6238   21.2342 C   0  0  0  0  0  0  0  0  0  0  0  0
    7.5617  -17.3912   18.4226 C   0  0  1  0  0  0  0  0  0  0  0  0
    3.2247  -18.1777   20.1477 C   0  0  0  0  0  0  0  0  0  0  0  0
    2.5326  -19.1024   19.3641 C   0  0  0  0  0  0  0  0  0  0  0  0
    1.7199  -18.6596   18.3191 C   0  0  0  0  0  0  0  0  0  0  0  0
    1.6128  -17.2955   18.0548 C   0  0  0  0  0  0  0  0  0  0  0  0
    2.3059  -16.3734   18.8372 C   0  0  0  0  0  0  0  0  0  0  0  0
    3.1080  -16.8137   19.8873 C   0  0  0  0  0  0  0  0  0  0  0  0
    0.7480  -16.8051   16.9540 C   0  0  1  0  0  0  0  0  0  0  0  0
    8.9741  -16.9014   18.4754 C   0  0  0  0  0  0  0  0  0  0  0  0
   10.4721  -15.8869   20.0102 C   0  0  0  0  0  0  0  0  0  0  0  0
   10.6555  -14.5195   19.9613 C   0  0  0  0  0  0  0  0  0  0  0  0
   11.4778  -22.9075   22.1096 F   0  0  0  0  0  0  0  0  0  0  0  0
    9.8928  -22.8489   20.6152 F   0  0  0  0  0  0  0  0  0  0  0  0
   11.9723  -23.0957   19.9966 F   0  0  0  0  0  0  0  0  0  0  0  0
    6.3768  -12.3602   18.8319 F   0  0  0  0  0  0  0  0  0  0  0  0
    4.6002  -12.0830   17.6272 F   0  0  0  0  0  0  0  0  0  0  0  0
    4.4607  -13.1106   19.5251 F   0  0  0  0  0  0  0  0  0  0  0  0
    1.4217  -16.5825   15.7980 F   0  0  0  0  0  0  0  0  0  0  0  0
   -0.1977  -17.7363   16.6599 F   0  0  0  0  0  0  0  0  0  0  0  0
    0.0770  -15.6613   17.2814 F   0  0  0  0  0  0  0  0  0  0  0  0
   11.8348  -13.9122   20.1955 N   0  0  0  0  0  0  0  0  0  0  0  0
    7.1767  -17.7647   19.7536 N   0  0  0  0  0  0  0  0  0  0  0  0
    5.6345  -19.4270   23.4195 N   0  0  0  0  0  0  0  0  0  0  0  0
    9.1873  -16.2907   19.7006 N   0  0  0  0  0  0  0  0  0  0  0  0
    5.6390  -19.1679   18.8502 O   0  0  0  0  0  0  0  0  0  0  0  0
    9.8001  -17.2424   17.6394 O   0  0  0  0  0  0  0  0  0  0  0  0
   13.8516  -14.2734   20.6802 H   0  0  0  0  0  0  0  0  0  0  0  0
   13.6424  -16.7169   20.8779 H   0  0  0  0  0  0  0  0  0  0  0  0
   10.2279  -18.0802   22.2585 H   0  0  0  0  0  0  0  0  0  0  0  0
   10.0614  -20.5510   22.4958 H   0  0  0  0  0  0  0  0  0  0  0  0
   12.5011  -21.0448   18.9697 H   0  0  0  0  0  0  0  0  0  0  0  0
   12.6730  -18.5737   18.7336 H   0  0  0  0  0  0  0  0  0  0  0  0
    6.1992  -17.6868   16.0253 H   0  0  0  0  0  0  0  0  0  0  0  0
    4.6596  -16.0554   14.9446 H   0  0  0  0  0  0  0  0  0  0  0  0
    4.1980  -13.8581   16.0414 H   0  0  0  0  0  0  0  0  0  0  0  0
    6.8317  -14.9369   19.2897 H   0  0  0  0  0  0  0  0  0  0  0  0
    7.2674  -19.3378   22.0885 H   0  0  0  0  0  0  0  0  0  0  0  0
    3.8205  -19.4609   24.4898 H   0  0  0  0  0  0  0  0  0  0  0  0
    2.3959  -18.7328   22.6135 H   0  0  0  0  0  0  0  0  0  0  0  0
    7.4920  -18.2821   17.7812 H   0  0  0  0  0  0  0  0  0  0  0  0
    2.6276  -20.1789   19.5697 H   0  0  0  0  0  0  0  0  0  0  0  0
    1.1655  -19.3854   17.7060 H   0  0  0  0  0  0  0  0  0  0  0  0
    2.2194  -15.2974   18.6252 H   0  0  0  0  0  0  0  0  0  0  0  0
    3.6486  -16.0858   20.5101 H   0  0  0  0  0  0  0  0  0  0  0  0
    9.7878  -13.8891   19.7168 H   0  0  0  0  0  0  0  0  0  0  0  0
    7.6680  -17.4221   20.5915 H   0  0  0  0  0  0  0  0  0  0  0  0
    8.4112  -16.1421   20.3612 H   0  0  0  0  0  0  0  0  0  0  0  0
  1  2  2  0
  1 44  1  0
  2  3  1  0
  3  4  1  0
  3 33  2  0
  4  5  2  0
  4  9  1  0
  5  6  1  0
  6  7  2  0
  7  8  1  0
  7 11  1  0
  8  9  2  0
 10 19  1  0
 10 45  1  0
 10 48  2  0
 11 35  1  1
 11 36  1  0
 11 37  1  0
 12 13  2  0
 12 17  1  0
 12 24  1  0
 13 14  1  0
 14 15  2  0
 15 16  1  0
 16 17  2  0
 16 18  1  0
 18 38  1  1
 18 39  1  0
 18 40  1  0
 19 20  2  0
 19 23  1  0
 20 46  1  0
 21 22  1  0
 21 46  2  0
 22 23  2  0
 23 25  1  0
 24 32  1  0
 24 45  1  0
 25 26  2  0
 25 30  1  0
 26 27  1  0
 27 28  2  0
 28 29  1  0
 28 31  1  0
 29 30  2  0
 31 41  1  6
 31 42  1  0
 31 43  1  0
 32 47  1  0
 32 49  2  0
 33 34  1  0
 33 47  1  0
 34 44  2  0
  1 50  1  0
  2 51  1  0
  5 52  1  0
  6 53  1  0
  8 54  1  0
  9 55  1  0
 13 56  1  0
 14 57  1  0
 15 58  1  0
 17 59  1  0
 20 60  1  0
 21 61  1  0
 22 62  1  0
 24 63  1  6
 26 64  1  0
 27 65  1  0
 29 66  1  0
 30 67  1  0
 34 68  1  0
 45 69  1  0
 47 70  1  0
M  END
>  <filename_input>  (10) 
8EAB_VN2_docked.sdf

>  <pdb_id>  (10) 
8EAB_VN2

>  <pose_rank>  (10) 
9

>  <num_atoms_heavy>  (10) 
49

>  <num_torsions>  (10) 
10

>  <pose>  (10) 
[7.561724707084581, -17.391161472740997, 18.422592440317135, -0.02773707526938668, -3.91923943633324, -4.361149067641613, -3.0863197327292182, -1.9618863259718216, -0.0961356046976502, 6.041925727485779, -0.4544133433707269, -0.7977700847466058, 3.4108118019122644, -0.0737068926310685, 2.750238591792815, 0.10994549521443601]

>  <energy>  (10) 
-852.0534002894432

>  <inter_energy>  (10) 
-902.3463164160307

>  <intra_energy>  (10) 
46.87149041049934

>  <rmsd>  (10) 
4.47897

>  <sdf_rank>  (10) 
0

$$$$

     RDKit          3D

 70 74  0  0  0  0  0  0  0  0999 V2000
   12.1673  -14.4569   20.5316 C   0  0  0  0  0  0  0  0  0  0  0  0
   12.4157  -15.8228   20.5093 C   0  0  0  0  0  0  0  0  0  0  0  0
   11.4253  -16.6843   20.0441 C   0  0  0  0  0  0  0  0  0  0  0  0
   11.7093  -18.1112   20.0594 C   0  0  0  0  0  0  0  0  0  0  0  0
   12.2461  -18.7315   18.9286 C   0  0  0  0  0  0  0  0  0  0  0  0
   12.5378  -20.0950   18.9382 C   0  0  0  0  0  0  0  0  0  0  0  0
   12.2972  -20.8557   20.0824 C   0  0  0  0  0  0  0  0  0  0  0  0
   11.7647  -20.2343   21.2139 C   0  0  0  0  0  0  0  0  0  0  0  0
   11.4710  -18.8709   21.2053 C   0  0  0  0  0  0  0  0  0  0  0  0
    5.3208  -17.6710   20.8637 C   0  0  0  0  0  0  0  0  0  0  0  0
   12.6173  -22.3070   20.1061 C   0  0  1  0  0  0  0  0  0  0  0  0
    6.3363  -16.7558   18.3850 C   0  0  0  0  0  0  0  0  0  0  0  0
    6.7088  -15.4049   18.4062 C   0  0  0  0  0  0  0  0  0  0  0  0
    6.0606  -14.4688   17.5973 C   0  0  0  0  0  0  0  0  0  0  0  0
    5.0278  -14.8767   16.7516 C   0  0  0  0  0  0  0  0  0  0  0  0
    4.6483  -16.2198   16.7197 C   0  0  0  0  0  0  0  0  0  0  0  0
    5.2999  -17.1470   17.5341 C   0  0  0  0  0  0  0  0  0  0  0  0
    3.5552  -16.6976   15.8350 C   0  0  1  0  0  0  0  0  0  0  0  0
    4.6306  -18.2095   22.0389 C   0  0  0  0  0  0  0  0  0  0  0  0
    5.3311  -18.4079   23.2122 C   0  0  0  0  0  0  0  0  0  0  0  0
    3.4657  -19.2735   24.2409 C   0  0  0  0  0  0  0  0  0  0  0  0
    2.6862  -19.1063   23.1071 C   0  0  0  0  0  0  0  0  0  0  0  0
    3.2825  -18.5618   21.9763 C   0  0  0  0  0  0  0  0  0  0  0  0
    7.0205  -17.7988   19.2467 C   0  0  1  0  0  0  0  0  0  0  0  0
    2.4643  -18.3607   20.8008 C   0  0  0  0  0  0  0  0  0  0  0  0
    2.3014  -19.3865   19.8685 C   0  0  0  0  0  0  0  0  0  0  0  0
    1.5079  -19.1810   18.7386 C   0  0  0  0  0  0  0  0  0  0  0  0
    0.8913  -17.9471   18.5400 C   0  0  0  0  0  0  0  0  0  0  0  0
    1.0563  -16.9230   19.4712 C   0  0  0  0  0  0  0  0  0  0  0  0
    1.8386  -17.1310   20.6046 C   0  0  0  0  0  0  0  0  0  0  0  0
    0.0378  -17.7121   17.3498 C   0  0  1  0  0  0  0  0  0  0  0  0
    8.1794  -17.2541   20.0197 C   0  0  0  0  0  0  0  0  0  0  0  0
   10.2205  -16.1070   19.6361 C   0  0  0  0  0  0  0  0  0  0  0  0
   10.0486  -14.7397   19.7187 C   0  0  0  0  0  0  0  0  0  0  0  0
   12.8691  -22.7989   21.3464 F   0  0  0  0  0  0  0  0  0  0  0  0
   11.5769  -23.0380   19.6080 F   0  0  0  0  0  0  0  0  0  0  0  0
   13.7031  -22.6182   19.3423 F   0  0  0  0  0  0  0  0  0  0  0  0
    3.8527  -16.6117   14.5147 F   0  0  0  0  0  0  0  0  0  0  0  0
    3.2372  -17.9978   16.0589 F   0  0  0  0  0  0  0  0  0  0  0  0
    2.3991  -16.0046   16.0092 F   0  0  0  0  0  0  0  0  0  0  0  0
   -0.2254  -16.4004   17.1263 F   0  0  0  0  0  0  0  0  0  0  0  0
    0.6696  -18.1603   16.2328 F   0  0  0  0  0  0  0  0  0  0  0  0
   -1.1525  -18.3787   17.4157 F   0  0  0  0  0  0  0  0  0  0  0  0
   10.9978  -13.8897   20.1557 N   0  0  0  0  0  0  0  0  0  0  0  0
    6.1588  -18.4805   20.1697 N   0  0  0  0  0  0  0  0  0  0  0  0
    4.7722  -18.9271   24.3257 N   0  0  0  0  0  0  0  0  0  0  0  0
    9.1258  -16.7788   19.1263 N   0  0  0  0  0  0  0  0  0  0  0  0
    5.1504  -16.4940   20.6019 O   0  0  0  0  0  0  0  0  0  0  0  0
    8.1123  -17.0719   21.2279 O   0  0  0  0  0  0  0  0  0  0  0  0
   12.9734  -13.7931   20.8773 H   0  0  0  0  0  0  0  0  0  0  0  0
   13.3820  -16.2192   20.8544 H   0  0  0  0  0  0  0  0  0  0  0  0
   12.4403  -18.1390   18.0224 H   0  0  0  0  0  0  0  0  0  0  0  0
   12.9590  -20.5721   18.0410 H   0  0  0  0  0  0  0  0  0  0  0  0
   11.5750  -20.8263   22.1214 H   0  0  0  0  0  0  0  0  0  0  0  0
   11.0508  -18.3939   22.1030 H   0  0  0  0  0  0  0  0  0  0  0  0
    7.5231  -15.0773   19.0692 H   0  0  0  0  0  0  0  0  0  0  0  0
    6.3634  -13.4117   17.6267 H   0  0  0  0  0  0  0  0  0  0  0  0
    4.5149  -14.1428   16.1127 H   0  0  0  0  0  0  0  0  0  0  0  0
    4.9924  -18.2028   17.5055 H   0  0  0  0  0  0  0  0  0  0  0  0
    6.3949  -18.1296   23.2408 H   0  0  0  0  0  0  0  0  0  0  0  0
    2.9923  -19.7165   25.1296 H   0  0  0  0  0  0  0  0  0  0  0  0
    1.6252  -19.3964   23.1026 H   0  0  0  0  0  0  0  0  0  0  0  0
    7.3702  -18.5271   18.5001 H   0  0  0  0  0  0  0  0  0  0  0  0
    2.7978  -20.3558   20.0239 H   0  0  0  0  0  0  0  0  0  0  0  0
    1.3696  -19.9907   18.0070 H   0  0  0  0  0  0  0  0  0  0  0  0
    0.5686  -15.9502   19.3108 H   0  0  0  0  0  0  0  0  0  0  0  0
    1.9624  -16.3259   21.3438 H   0  0  0  0  0  0  0  0  0  0  0  0
    9.0799  -14.3199   19.4097 H   0  0  0  0  0  0  0  0  0  0  0  0
    6.1753  -19.5027   20.2950 H   0  0  0  0  0  0  0  0  0  0  0  0
    9.0166  -16.9221   18.1122 H   0  0  0  0  0  0  0  0  0  0  0  0
  1  2  2  0
  1 44  1  0
  2  3  1  0
  3  4  1  0
  3 33  2  0
  4  5  2  0
  4  9  1  0
  5  6  1  0
  6  7  2  0
  7  8  1  0
  7 11  1  0
  8  9  2  0
 10 19  1  0
 10 45  1  0
 10 48  2  0
 11 35  1  1
 11 36  1  0
 11 37  1  0
 12 13  2  0
 12 17  1  0
 12 24  1  0
 13 14  1  0
 14 15  2  0
 15 16  1  0
 16 17  2  0
 16 18  1  0
 18 38  1  6
 18 39  1  0
 18 40  1  0
 19 20  2  0
 19 23  1  0
 20 46  1  0
 21 22  1  0
 21 46  2  0
 22 23  2  0
 23 25  1  0
 24 32  1  0
 24 45  1  0
 25 26  2  0
 25 30  1  0
 26 27  1  0
 27 28  2  0
 28 29  1  0
 28 31  1  0
 29 30  2  0
 31 41  1  6
 31 42  1  0
 31 43  1  0
 32 47  1  0
 32 49  2  0
 33 34  1  0
 33 47  1  0
 34 44  2  0
  1 50  1  0
  2 51  1  0
  5 52  1  0
  6 53  1  0
  8 54  1  0
  9 55  1  0
 13 56  1  0
 14 57  1  0
 15 58  1  0
 17 59  1  0
 20 60  1  0
 21 61  1  0
 22 62  1  0
 24 63  1  6
 26 64  1  0
 27 65  1  0
 29 66  1  0
 30 67  1  0
 34 68  1  0
 45 69  1  0
 47 70  1  0
M  END
>  <filename_input>  (11) 
8EAB_VN2_docked.sdf

>  <pdb_id>  (11) 
8EAB_VN2

>  <pose_rank>  (11) 
10

>  <num_atoms_heavy>  (11) 
49

>  <num_torsions>  (11) 
10

>  <pose>  (11) 
[7.020541696283522, -17.798827102101956, 19.246672617010535, -1.3562712115161575, 2.465363847814351, -5.051158166918848, 1.1409595395552938, 1.5078781498301632, 10.399498291654071, 8.299397076488123, -0.49341208557846705, 4.2784036928402145, 6.952590279606897, -3.543071912486356, -0.796805177116631, -2.5867825080281817]

>  <energy>  (11) 
-865.150298319528

>  <inter_energy>  (11) 
-990.958531298864

>  <intra_energy>  (11) 
126.39784180384179

>  <rmsd>  (11) 
4.09825

>  <sdf_rank>  (11) 
0

$$$$

     RDKit          3D

 70 74  0  0  0  0  0  0  0  0999 V2000
   12.1787  -13.8035   19.2787 C   0  0  0  0  0  0  0  0  0  0  0  0
   12.2512  -15.1828   19.4194 C   0  0  0  0  0  0  0  0  0  0  0  0
   11.0760  -15.9297   19.3916 C   0  0  0  0  0  0  0  0  0  0  0  0
   11.1864  -17.3697   19.5686 C   0  0  0  0  0  0  0  0  0  0  0  0
   11.0662  -18.2226   18.4687 C   0  0  0  0  0  0  0  0  0  0  0  0
   11.1872  -19.6029   18.6245 C   0  0  0  0  0  0  0  0  0  0  0  0
   11.4322  -20.1478   19.8850 C   0  0  0  0  0  0  0  0  0  0  0  0
   11.5565  -19.2945   20.9834 C   0  0  0  0  0  0  0  0  0  0  0  0
   11.4343  -17.9138   20.8294 C   0  0  0  0  0  0  0  0  0  0  0  0
    5.4813  -18.3778   20.9858 C   0  0  0  0  0  0  0  0  0  0  0  0
   11.5756  -21.6170   20.0583 C   0  0  1  0  0  0  0  0  0  0  0  0
    5.7234  -15.4078   19.4716 C   0  0  0  0  0  0  0  0  0  0  0  0
    6.2802  -14.2984   18.8208 C   0  0  0  0  0  0  0  0  0  0  0  0
    5.4677  -13.2847   18.3077 C   0  0  0  0  0  0  0  0  0  0  0  0
    4.0808  -13.3714   18.4391 C   0  0  0  0  0  0  0  0  0  0  0  0
    3.5134  -14.4721   19.0837 C   0  0  0  0  0  0  0  0  0  0  0  0
    4.3338  -15.4781   19.5958 C   0  0  0  0  0  0  0  0  0  0  0  0
    2.0430  -14.6050   19.2454 C   0  0  1  0  0  0  0  0  0  0  0  0
    4.6376  -18.9683   22.0283 C   0  0  0  0  0  0  0  0  0  0  0  0
    5.2006  -19.3470   23.2309 C   0  0  0  0  0  0  0  0  0  0  0  0
    3.1794  -20.1409   23.9871 C   0  0  0  0  0  0  0  0  0  0  0  0
    2.5317  -19.7900   22.8131 C   0  0  0  0  0  0  0  0  0  0  0  0
    3.2784  -19.1896   21.8068 C   0  0  0  0  0  0  0  0  0  0  0  0
    6.5750  -16.5274   20.0370 C   0  0  1  0  0  0  0  0  0  0  0  0
    2.5990  -18.7974   20.5918 C   0  0  0  0  0  0  0  0  0  0  0  0
    1.2068  -18.8532   20.5103 C   0  0  0  0  0  0  0  0  0  0  0  0
    0.5622  -18.4704   19.3328 C   0  0  0  0  0  0  0  0  0  0  0  0
    1.3132  -18.0458   18.2383 C   0  0  0  0  0  0  0  0  0  0  0  0
    2.7037  -17.9924   18.3206 C   0  0  0  0  0  0  0  0  0  0  0  0
    3.3469  -18.3631   19.4990 C   0  0  0  0  0  0  0  0  0  0  0  0
    0.6463  -17.6275   16.9812 C   0  0  1  0  0  0  0  0  0  0  0  0
    7.9750  -16.1017   20.3470 C   0  0  0  0  0  0  0  0  0  0  0  0
    9.8793  -15.2267   19.2347 C   0  0  0  0  0  0  0  0  0  0  0  0
    9.8971  -13.8502   19.1302 C   0  0  0  0  0  0  0  0  0  0  0  0
   12.7754  -22.1083   19.6544 F   0  0  0  0  0  0  0  0  0  0  0  0
   11.4433  -21.9622   21.3729 F   0  0  0  0  0  0  0  0  0  0  0  0
   10.6249  -22.3215   19.3807 F   0  0  0  0  0  0  0  0  0  0  0  0
    1.4462  -13.4770   19.7041 F   0  0  0  0  0  0  0  0  0  0  0  0
    1.4178  -14.9067   18.0794 F   0  0  0  0  0  0  0  0  0  0  0  0
    1.6983  -15.5952   20.1103 F   0  0  0  0  0  0  0  0  0  0  0  0
   -0.3407  -16.7170   17.1723 F   0  0  0  0  0  0  0  0  0  0  0  0
    1.5476  -17.0314   16.1565 F   0  0  0  0  0  0  0  0  0  0  0  0
    0.1234  -18.6811   16.2869 F   0  0  0  0  0  0  0  0  0  0  0  0
   11.0236  -13.1117   19.1443 N   0  0  0  0  0  0  0  0  0  0  0  0
    6.0399  -17.1621   21.2075 N   0  0  0  0  0  0  0  0  0  0  0  0
    4.4948  -19.9240   24.2262 N   0  0  0  0  0  0  0  0  0  0  0  0
    8.6138  -15.7771   19.1612 N   0  0  0  0  0  0  0  0  0  0  0  0
    5.5911  -18.9889   19.9382 O   0  0  0  0  0  0  0  0  0  0  0  0
    8.3332  -15.8706   21.4941 O   0  0  0  0  0  0  0  0  0  0  0  0
   13.1212  -13.2363   19.2763 H   0  0  0  0  0  0  0  0  0  0  0  0
   13.2240  -15.6792   19.5510 H   0  0  0  0  0  0  0  0  0  0  0  0
   10.8744  -17.8014   17.4708 H   0  0  0  0  0  0  0  0  0  0  0  0
   11.0893  -20.2641   17.7508 H   0  0  0  0  0  0  0  0  0  0  0  0
   11.7530  -19.7158   21.9803 H   0  0  0  0  0  0  0  0  0  0  0  0
   11.5333  -17.2528   21.7030 H   0  0  0  0  0  0  0  0  0  0  0  0
    7.3724  -14.2251   18.7124 H   0  0  0  0  0  0  0  0  0  0  0  0
    5.9201  -12.4195   17.8010 H   0  0  0  0  0  0  0  0  0  0  0  0
    3.4373  -12.5754   18.0362 H   0  0  0  0  0  0  0  0  0  0  0  0
    3.8790  -16.3403   20.1055 H   0  0  0  0  0  0  0  0  0  0  0  0
    6.2753  -19.1700   23.3850 H   0  0  0  0  0  0  0  0  0  0  0  0
    2.5868  -20.6273   24.7759 H   0  0  0  0  0  0  0  0  0  0  0  0
    1.4565  -19.9814   22.6817 H   0  0  0  0  0  0  0  0  0  0  0  0
    6.5733  -17.2603   19.2167 H   0  0  0  0  0  0  0  0  0  0  0  0
    0.6181  -19.1983   21.3731 H   0  0  0  0  0  0  0  0  0  0  0  0
   -0.5354  -18.5039   19.2689 H   0  0  0  0  0  0  0  0  0  0  0  0
    3.2932  -17.6572   17.4545 H   0  0  0  0  0  0  0  0  0  0  0  0
    4.4437  -18.3132   19.5671 H   0  0  0  0  0  0  0  0  0  0  0  0
    8.9353  -13.3260   19.0296 H   0  0  0  0  0  0  0  0  0  0  0  0
    6.0770  -16.7290   22.1412 H   0  0  0  0  0  0  0  0  0  0  0  0
    8.1590  -15.9412   18.2517 H   0  0  0  0  0  0  0  0  0  0  0  0
  1  2  2  0
  1 44  1  0
  2  3  1  0
  3  4  1  0
  3 33  2  0
  4  5  2  0
  4  9  1  0
  5  6  1  0
  6  7  2  0
  7  8  1  0
  7 11  1  0
  8  9  2  0
 10 19  1  0
 10 45  1  0
 10 48  2  0
 11 35  1  6
 11 36  1  0
 11 37  1  0
 12 13  2  0
 12 17  1  0
 12 24  1  0
 13 14  1  0
 14 15  2  0
 15 16  1  0
 16 17  2  0
 16 18  1  0
 18 38  1  1
 18 39  1  0
 18 40  1  0
 19 20  2  0
 19 23  1  0
 20 46  1  0
 21 22  1  0
 21 46  2  0
 22 23  2  0
 23 25  1  0
 24 32  1  0
 24 45  1  0
 25 26  2  0
 25 30  1  0
 26 27  1  0
 27 28  2  0
 28 29  1  0
 28 31  1  0
 29 30  2  0
 31 41  1  1
 31 42  1  0
 31 43  1  0
 32 47  1  0
 32 49  2  0
 33 34  1  0
 33 47  1  0
 34 44  2  0
  1 50  1  0
  2 51  1  0
  5 52  1  0
  6 53  1  0
  8 54  1  0
  9 55  1  0
 13 56  1  0
 14 57  1  0
 15 58  1  0
 17 59  1  0
 20 60  1  0
 21 61  1  0
 22 62  1  0
 24 63  1  6
 26 64  1  0
 27 65  1  0
 29 66  1  0
 30 67  1  0
 34 68  1  0
 45 69  1  0
 47 70  1  0
M  END
>  <filename_input>  (12) 
8EAB_VN2_docked.sdf

>  <pdb_id>  (12) 
8EAB_VN2

>  <pose_rank>  (12) 
11

>  <num_atoms_heavy>  (12) 
49

>  <num_torsions>  (12) 
10

>  <pose>  (12) 
[6.574984349295421, -16.527411312739623, 20.03697583781917, -2.8943907842668586, -1.9731633463965716, -4.725017712794367, -4.647989662713291, -0.4872721671485238, 6.725074492713675, 12.121117786498926, 1.1832980997182279, 1.7615353552427606, -11.97536941671051, -9.936121039642947, -0.9869312960530668, 2.3463620662541347]

>  <energy>  (12) 
-753.1723006581997

>  <inter_energy>  (12) 
-934.1449162161294

>  <intra_energy>  (12) 
178.64665957377923

>  <rmsd>  (12) 
4.21898

>  <sdf_rank>  (12) 
0

$$$$

     RDKit          3D

 70 74  0  0  0  0  0  0  0  0999 V2000
   11.8754  -18.8138   21.6418 C   0  0  0  0  0  0  0  0  0  0  0  0
   11.8244  -17.5688   21.0295 C   0  0  0  0  0  0  0  0  0  0  0  0
   10.5842  -17.0154   20.7211 C   0  0  0  0  0  0  0  0  0  0  0  0
   10.5683  -15.7215   20.0558 C   0  0  0  0  0  0  0  0  0  0  0  0
   10.9821  -14.5760   20.7403 C   0  0  0  0  0  0  0  0  0  0  0  0
   10.9869  -13.3338   20.1070 C   0  0  0  0  0  0  0  0  0  0  0  0
   10.5785  -13.2225   18.7778 C   0  0  0  0  0  0  0  0  0  0  0  0
   10.1692  -14.3684   18.0928 C   0  0  0  0  0  0  0  0  0  0  0  0
   10.1624  -15.6114   18.7254 C   0  0  0  0  0  0  0  0  0  0  0  0
    5.6705  -17.9692   19.0759 C   0  0  0  0  0  0  0  0  0  0  0  0
   10.5929  -11.9046   18.0907 C   0  0  1  0  0  0  0  0  0  0  0  0
    4.6588  -18.1750   21.7734 C   0  0  0  0  0  0  0  0  0  0  0  0
    4.3328  -18.3614   23.1236 C   0  0  0  0  0  0  0  0  0  0  0  0
    3.2267  -19.1288   23.4957 C   0  0  0  0  0  0  0  0  0  0  0  0
    2.4284  -19.7198   22.5150 C   0  0  0  0  0  0  0  0  0  0  0  0
    2.7411  -19.5404   21.1664 C   0  0  0  0  0  0  0  0  0  0  0  0
    3.8503  -18.7746   20.8048 C   0  0  0  0  0  0  0  0  0  0  0  0
    1.9192  -20.1505   20.0902 C   0  0  1  0  0  0  0  0  0  0  0  0
    5.9508  -17.7311   17.6574 C   0  0  0  0  0  0  0  0  0  0  0  0
    7.2094  -17.9961   17.1550 C   0  0  0  0  0  0  0  0  0  0  0  0
    6.5914  -17.2498   15.0697 C   0  0  0  0  0  0  0  0  0  0  0  0
    5.3028  -16.9572   15.4878 C   0  0  0  0  0  0  0  0  0  0  0  0
    4.9729  -17.2022   16.8152 C   0  0  0  0  0  0  0  0  0  0  0  0
    5.8495  -17.3457   21.3341 C   0  0  1  0  0  0  0  0  0  0  0  0
    3.6210  -16.9236   17.2470 C   0  0  0  0  0  0  0  0  0  0  0  0
    3.3719  -15.9300   18.1950 C   0  0  0  0  0  0  0  0  0  0  0  0
    2.0626  -15.6691   18.6027 C   0  0  0  0  0  0  0  0  0  0  0  0
    1.0101  -16.4111   18.0699 C   0  0  0  0  0  0  0  0  0  0  0  0
    1.2606  -17.4042   17.1245 C   0  0  0  0  0  0  0  0  0  0  0  0
    2.5656  -17.6574   16.7087 C   0  0  0  0  0  0  0  0  0  0  0  0
   -0.3887  -16.1432   18.4845 C   0  0  1  0  0  0  0  0  0  0  0  0
    7.1613  -18.0116   21.6048 C   0  0  0  0  0  0  0  0  0  0  0  0
    9.4535  -17.7701   21.0421 C   0  0  0  0  0  0  0  0  0  0  0  0
    9.5973  -19.0132   21.6251 C   0  0  0  0  0  0  0  0  0  0  0  0
    9.8689  -11.8702   16.9424 F   0  0  0  0  0  0  0  0  0  0  0  0
   10.0746  -10.9340   18.8995 F   0  0  0  0  0  0  0  0  0  0  0  0
   11.8519  -11.4965   17.7627 F   0  0  0  0  0  0  0  0  0  0  0  0
    2.6352  -20.4860   18.9885 F   0  0  0  0  0  0  0  0  0  0  0  0
    1.3018  -21.2903   20.4917 F   0  0  0  0  0  0  0  0  0  0  0  0
    0.9248  -19.3295   19.6609 F   0  0  0  0  0  0  0  0  0  0  0  0
   -1.3084  -16.7918   17.7274 F   0  0  0  0  0  0  0  0  0  0  0  0
   -0.5837  -16.5760   19.7583 F   0  0  0  0  0  0  0  0  0  0  0  0
   -0.6944  -14.8120   18.4764 F   0  0  0  0  0  0  0  0  0  0  0  0
   10.7872  -19.5604   21.9404 N   0  0  0  0  0  0  0  0  0  0  0  0
    5.8347  -16.9497   19.9549 N   0  0  0  0  0  0  0  0  0  0  0  0
    7.5513  -17.7745   15.8682 N   0  0  0  0  0  0  0  0  0  0  0  0
    8.1387  -17.3955   20.8401 N   0  0  0  0  0  0  0  0  0  0  0  0
    5.3579  -19.0992   19.4052 O   0  0  0  0  0  0  0  0  0  0  0  0
    7.3016  -18.7908   22.5379 O   0  0  0  0  0  0  0  0  0  0  0  0
   12.8645  -19.2196   21.9009 H   0  0  0  0  0  0  0  0  0  0  0  0
   12.7514  -17.0266   20.7911 H   0  0  0  0  0  0  0  0  0  0  0  0
   11.3070  -14.6548   21.7882 H   0  0  0  0  0  0  0  0  0  0  0  0
   11.3137  -12.4390   20.6571 H   0  0  0  0  0  0  0  0  0  0  0  0
    9.8487  -14.2899   17.0435 H   0  0  0  0  0  0  0  0  0  0  0  0
    9.8365  -16.5061   18.1747 H   0  0  0  0  0  0  0  0  0  0  0  0
    4.9569  -17.8969   23.9013 H   0  0  0  0  0  0  0  0  0  0  0  0
    2.9850  -19.2672   24.5599 H   0  0  0  0  0  0  0  0  0  0  0  0
    1.5561  -20.3247   22.8038 H   0  0  0  0  0  0  0  0  0  0  0  0
    4.0919  -18.6411   19.7400 H   0  0  0  0  0  0  0  0  0  0  0  0
    7.9694  -18.4073   17.8357 H   0  0  0  0  0  0  0  0  0  0  0  0
    6.8514  -17.0424   14.0212 H   0  0  0  0  0  0  0  0  0  0  0  0
    4.5619  -16.5425   14.7884 H   0  0  0  0  0  0  0  0  0  0  0  0
    5.7470  -16.4421   21.9529 H   0  0  0  0  0  0  0  0  0  0  0  0
    4.2064  -15.3532   18.6204 H   0  0  0  0  0  0  0  0  0  0  0  0
    1.8621  -14.8799   19.3423 H   0  0  0  0  0  0  0  0  0  0  0  0
    0.4274  -17.9883   16.7066 H   0  0  0  0  0  0  0  0  0  0  0  0
    2.7629  -18.4354   15.9565 H   0  0  0  0  0  0  0  0  0  0  0  0
    8.6872  -19.5906   21.8450 H   0  0  0  0  0  0  0  0  0  0  0  0
    5.9404  -15.9695   19.6565 H   0  0  0  0  0  0  0  0  0  0  0  0
    7.8927  -16.6795   20.1418 H   0  0  0  0  0  0  0  0  0  0  0  0
  1  2  2  0
  1 44  1  0
  2  3  1  0
  3  4  1  0
  3 33  2  0
  4  5  2  0
  4  9  1  0
  5  6  1  0
  6  7  2  0
  7  8  1  0
  7 11  1  0
  8  9  2  0
 10 19  1  0
 10 45  1  0
 10 48  2  0
 11 35  1  6
 11 36  1  0
 11 37  1  0
 12 13  2  0
 12 17  1  0
 12 24  1  0
 13 14  1  0
 14 15  2  0
 15 16  1  0
 16 17  2  0
 16 18  1  0
 18 38  1  6
 18 39  1  0
 18 40  1  0
 19 20  2  0
 19 23  1  0
 20 46  1  0
 21 22  1  0
 21 46  2  0
 22 23  2  0
 23 25  1  0
 24 32  1  0
 24 45  1  0
 25 26  2  0
 25 30  1  0
 26 27  1  0
 27 28  2  0
 28 29  1  0
 28 31  1  0
 29 30  2  0
 31 41  1  6
 31 42  1  0
 31 43  1  0
 32 47  1  0
 32 49  2  0
 33 34  1  0
 33 47  1  0
 34 44  2  0
  1 50  1  0
  2 51  1  0
  5 52  1  0
  6 53  1  0
  8 54  1  0
  9 55  1  0
 13 56  1  0
 14 57  1  0
 15 58  1  0
 17 59  1  0
 20 60  1  0
 21 61  1  0
 22 62  1  0
 24 63  1  1
 26 64  1  0
 27 65  1  0
 29 66  1  0
 30 67  1  0
 34 68  1  0
 45 69  1  0
 47 70  1  0
M  END
>  <filename_input>  (13) 
8EAB_VN2_docked.sdf

>  <pdb_id>  (13) 
8EAB_VN2

>  <pose_rank>  (13) 
12

>  <num_atoms_heavy>  (13) 
49

>  <num_torsions>  (13) 
10

>  <pose>  (13) 
[5.849510648423904, -17.345748199530693, 21.33408574933873, 2.979766175755703, -0.6825548012476916, 0.7988704479431731, 2.4764593436765012, -2.243108430810248, -2.294771814560889, 2.327128024196629, -0.982025001194512, -2.4392425087960263, -1.7084224282531193, -1.5629864001869687, -0.3726630614060197, -1.8590665156664774]

>  <energy>  (13) 
-666.7541950539564

>  <inter_energy>  (13) 
-894.3027309207752

>  <intra_energy>  (13) 
233.64710182800638

>  <rmsd>  (13) 
4.39327

>  <sdf_rank>  (13) 
0

$$$$

     RDKit          3D

 70 74  0  0  0  0  0  0  0  0999 V2000
   10.8017  -19.2831   21.7742 C   0  0  0  0  0  0  0  0  0  0  0  0
    9.4207  -19.3682   21.8901 C   0  0  0  0  0  0  0  0  0  0  0  0
    8.6245  -18.4743   21.1785 C   0  0  0  0  0  0  0  0  0  0  0  0
    7.1824  -18.5746   21.3440 C   0  0  0  0  0  0  0  0  0  0  0  0
    6.3395  -18.4561   20.2361 C   0  0  0  0  0  0  0  0  0  0  0  0
    4.9572  -18.5675   20.3809 C   0  0  0  0  0  0  0  0  0  0  0  0
    4.4002  -18.8011   21.6383 C   0  0  0  0  0  0  0  0  0  0  0  0
    5.2434  -18.9238   22.7446 C   0  0  0  0  0  0  0  0  0  0  0  0
    6.6261  -18.8111   22.6016 C   0  0  0  0  0  0  0  0  0  0  0  0
    5.1794  -15.2972   18.0934 C   0  0  0  0  0  0  0  0  0  0  0  0
    2.9287  -18.9344   21.8001 C   0  0  1  0  0  0  0  0  0  0  0  0
    8.3575  -14.6845   17.3146 C   0  0  0  0  0  0  0  0  0  0  0  0
    9.0697  -14.7224   16.1081 C   0  0  0  0  0  0  0  0  0  0  0  0
    9.8990  -13.6638   15.7305 C   0  0  0  0  0  0  0  0  0  0  0  0
   10.0239  -12.5480   16.5598 C   0  0  0  0  0  0  0  0  0  0  0  0
    9.3185  -12.4970   17.7634 C   0  0  0  0  0  0  0  0  0  0  0  0
    8.4950  -13.5611   18.1334 C   0  0  0  0  0  0  0  0  0  0  0  0
    9.4216  -11.3295   18.6757 C   0  0  1  0  0  0  0  0  0  0  0  0
    4.1218  -14.6163   18.8452 C   0  0  0  0  0  0  0  0  0  0  0  0
    4.4348  -13.5235   19.6291 C   0  0  0  0  0  0  0  0  0  0  0  0
    2.2540  -13.3387   20.3342 C   0  0  0  0  0  0  0  0  0  0  0  0
    1.8505  -14.4248   19.5737 C   0  0  0  0  0  0  0  0  0  0  0  0
    2.8076  -15.0822   18.8103 C   0  0  0  0  0  0  0  0  0  0  0  0
    7.4462  -15.8137   17.7536 C   0  0  1  0  0  0  0  0  0  0  0  0
    2.3837  -16.1987   17.9946 C   0  0  0  0  0  0  0  0  0  0  0  0
    2.3382  -17.4875   18.5282 C   0  0  0  0  0  0  0  0  0  0  0  0
    1.9257  -18.5569   17.7315 C   0  0  0  0  0  0  0  0  0  0  0  0
    1.5727  -18.3346   16.4018 C   0  0  0  0  0  0  0  0  0  0  0  0
    1.6203  -17.0471   15.8698 C   0  0  0  0  0  0  0  0  0  0  0  0
    2.0207  -15.9778   16.6673 C   0  0  0  0  0  0  0  0  0  0  0  0
    1.1242  -19.4567   15.5416 C   0  0  1  0  0  0  0  0  0  0  0  0
    8.1855  -16.9621   18.3636 C   0  0  0  0  0  0  0  0  0  0  0  0
    9.2810  -17.5253   20.3914 C   0  0  0  0  0  0  0  0  0  0  0  0
   10.6607  -17.4943   20.3564 C   0  0  0  0  0  0  0  0  0  0  0  0
    2.3135  -19.5722   20.7713 F   0  0  0  0  0  0  0  0  0  0  0  0
    2.6304  -19.6472   22.9260 F   0  0  0  0  0  0  0  0  0  0  0  0
    2.3034  -17.7300   21.9335 F   0  0  0  0  0  0  0  0  0  0  0  0
   10.6691  -10.8013   18.7376 F   0  0  0  0  0  0  0  0  0  0  0  0
    8.6056  -10.3096   18.3076 F   0  0  0  0  0  0  0  0  0  0  0  0
    9.0735  -11.6312   19.9544 F   0  0  0  0  0  0  0  0  0  0  0  0
    0.8748  -20.5977   16.2313 F   0  0  0  0  0  0  0  0  0  0  0  0
   -0.0441  -19.1300   14.9283 F   0  0  0  0  0  0  0  0  0  0  0  0
    2.0154  -19.7472   14.5482 F   0  0  0  0  0  0  0  0  0  0  0  0
   11.4473  -18.3566   21.0289 N   0  0  0  0  0  0  0  0  0  0  0  0
    6.4034  -15.4308   18.6620 N   0  0  0  0  0  0  0  0  0  0  0  0
    3.5218  -12.8636   20.3724 N   0  0  0  0  0  0  0  0  0  0  0  0
    8.6795  -16.5681   19.5967 N   0  0  0  0  0  0  0  0  0  0  0  0
    4.9195  -15.6602   16.9605 O   0  0  0  0  0  0  0  0  0  0  0  0
    8.1063  -18.0916   17.8995 O   0  0  0  0  0  0  0  0  0  0  0  0
   11.4102  -20.0164   22.3237 H   0  0  0  0  0  0  0  0  0  0  0  0
    8.9617  -20.1316   22.5355 H   0  0  0  0  0  0  0  0  0  0  0  0
    6.7703  -18.2732   19.2406 H   0  0  0  0  0  0  0  0  0  0  0  0
    4.3040  -18.4710   19.5011 H   0  0  0  0  0  0  0  0  0  0  0  0
    4.8125  -19.1113   23.7392 H   0  0  0  0  0  0  0  0  0  0  0  0
    7.2791  -18.9087   23.4814 H   0  0  0  0  0  0  0  0  0  0  0  0
    8.9742  -15.5981   15.4493 H   0  0  0  0  0  0  0  0  0  0  0  0
   10.4528  -13.7094   14.7812 H   0  0  0  0  0  0  0  0  0  0  0  0
   10.6757  -11.7120   16.2660 H   0  0  0  0  0  0  0  0  0  0  0  0
    7.9454  -13.5146   19.0851 H   0  0  0  0  0  0  0  0  0  0  0  0
    5.4777  -13.1742   19.6486 H   0  0  0  0  0  0  0  0  0  0  0  0
    1.4953  -12.8293   20.9464 H   0  0  0  0  0  0  0  0  0  0  0  0
    0.8020  -14.7572   19.5744 H   0  0  0  0  0  0  0  0  0  0  0  0
    6.9810  -16.1216   16.8055 H   0  0  0  0  0  0  0  0  0  0  0  0
    2.6271  -17.6604   19.5755 H   0  0  0  0  0  0  0  0  0  0  0  0
    1.8794  -19.5723   18.1520 H   0  0  0  0  0  0  0  0  0  0  0  0
    1.3415  -16.8755   14.8196 H   0  0  0  0  0  0  0  0  0  0  0  0
    2.0505  -14.9604   16.2502 H   0  0  0  0  0  0  0  0  0  0  0  0
   11.1460  -16.7204   19.7436 H   0  0  0  0  0  0  0  0  0  0  0  0
    6.5711  -15.2702   19.6655 H   0  0  0  0  0  0  0  0  0  0  0  0
    8.6007  -15.5906   19.9117 H   0  0  0  0  0  0  0  0  0  0  0  0
  1  2  2  0
  1 44  1  0
  2  3  1  0
  3  4  1  0
  3 33  2  0
  4  5  2  0
  4  9  1  0
  5  6  1  0
  6  7  2  0
  7  8  1  0
  7 11  1  0
  8  9  2  0
 10 19  1  0
 10 45  1  0
 10 48  2  0
 11 35  1  6
 11 36  1  0
 11 37  1  0
 12 13  2  0
 12 17  1  0
 12 24  1  0
 13 14  1  0
 14 15  2  0
 15 16  1  0
 16 17  2  0
 16 18  1  0
 18 38  1  1
 18 39  1  0
 18 40  1  0
 19 20  2  0
 19 23  1  0
 20 46  1  0
 21 22  1  0
 21 46  2  0
 22 23  2  0
 23 25  1  0
 24 32  1  0
 24 45  1  0
 25 26  2  0
 25 30  1  0
 26 27  1  0
 27 28  2  0
 28 29  1  0
 28 31  1  0
 29 30  2  0
 31 41  1  1
 31 42  1  0
 31 43  1  0
 32 47  1  0
 32 49  2  0
 33 34  1  0
 33 47  1  0
 34 44  2  0
  1 50  1  0
  2 51  1  0
  5 52  1  0
  6 53  1  0
  8 54  1  0
  9 55  1  0
 13 56  1  0
 14 57  1  0
 15 58  1  0
 17 59  1  0
 20 60  1  0
 21 61  1  0
 22 62  1  0
 24 63  1  6
 26 64  1  0
 27 65  1  0
 29 66  1  0
 30 67  1  0
 34 68  1  0
 45 69  1  0
 47 70  1  0
M  END
>  <filename_input>  (14) 
8EAB_VN2_docked.sdf

>  <pdb_id>  (14) 
8EAB_VN2

>  <pose_rank>  (14) 
13

>  <num_atoms_heavy>  (14) 
49

>  <num_torsions>  (14) 
10

>  <pose>  (14) 
[7.446195228213253, -15.813719610126842, 17.753584968478098, -1.5951235539375246, 1.545028074913392, 4.838214952612443, -22.511967149796778, -0.31584697963070546, 56.96327821296433, 76.76907680691625, -6.775015453711172, 1.0712672348494734, -3.320629975644593, 12.383526395303075, 10.977954161361685, -4.637598701528309]

>  <energy>  (14) 
-716.8466632255678

>  <inter_energy>  (14) 
-812.8265372269885

>  <intra_energy>  (14) 
99.64541565194358

>  <rmsd>  (14) 
5.68206

>  <sdf_rank>  (14) 
0

$$$$

     RDKit          3D

 70 74  0  0  0  0  0  0  0  0999 V2000
    4.4308  -19.4124   23.7690 C   0  0  0  0  0  0  0  0  0  0  0  0
    5.6607  -19.0897   23.2114 C   0  0  0  0  0  0  0  0  0  0  0  0
    5.7009  -18.5278   21.9377 C   0  0  0  0  0  0  0  0  0  0  0  0
    7.0077  -18.2266   21.3732 C   0  0  0  0  0  0  0  0  0  0  0  0
    7.1136  -17.3993   20.2525 C   0  0  0  0  0  0  0  0  0  0  0  0
    8.3621  -17.0905   19.7137 C   0  0  0  0  0  0  0  0  0  0  0  0
    9.5224  -17.6056   20.2919 C   0  0  0  0  0  0  0  0  0  0  0  0
    9.4162  -18.4290   21.4147 C   0  0  0  0  0  0  0  0  0  0  0  0
    8.1681  -18.7399   21.9538 C   0  0  0  0  0  0  0  0  0  0  0  0
    5.7312  -15.6782   16.6724 C   0  0  0  0  0  0  0  0  0  0  0  0
   10.8582  -17.2713   19.7323 C   0  0  1  0  0  0  0  0  0  0  0  0
    3.2797  -16.8538   17.6931 C   0  0  0  0  0  0  0  0  0  0  0  0
    3.6755  -17.7186   16.6637 C   0  0  0  0  0  0  0  0  0  0  0  0
    2.7348  -18.4715   15.9572 C   0  0  0  0  0  0  0  0  0  0  0  0
    1.3798  -18.3683   16.2761 C   0  0  0  0  0  0  0  0  0  0  0  0
    0.9726  -17.5118   17.3005 C   0  0  0  0  0  0  0  0  0  0  0  0
    1.9198  -16.7613   17.9984 C   0  0  0  0  0  0  0  0  0  0  0  0
   -0.4582  -17.3714   17.6732 C   0  0  1  0  0  0  0  0  0  0  0  0
    6.9860  -15.9579   15.9691 C   0  0  0  0  0  0  0  0  0  0  0  0
    7.0362  -16.9770   15.0388 C   0  0  0  0  0  0  0  0  0  0  0  0
    9.2759  -16.6051   14.6748 C   0  0  0  0  0  0  0  0  0  0  0  0
    9.3159  -15.5653   15.5903 C   0  0  0  0  0  0  0  0  0  0  0  0
    8.1424  -15.2328   16.2561 C   0  0  0  0  0  0  0  0  0  0  0  0
    4.2739  -16.0250   18.4825 C   0  0  1  0  0  0  0  0  0  0  0  0
    8.1752  -14.1303   17.1915 C   0  0  0  0  0  0  0  0  0  0  0  0
    7.1198  -13.9264   18.0818 C   0  0  0  0  0  0  0  0  0  0  0  0
    7.1637  -12.8597   18.9811 C   0  0  0  0  0  0  0  0  0  0  0  0
    8.2564  -11.9947   18.9775 C   0  0  0  0  0  0  0  0  0  0  0  0
    9.3088  -12.1987   18.0865 C   0  0  0  0  0  0  0  0  0  0  0  0
    9.2712  -13.2695   17.1967 C   0  0  0  0  0  0  0  0  0  0  0  0
    8.3250  -10.8604   19.9308 C   0  0  1  0  0  0  0  0  0  0  0  0
    4.3291  -16.3956   19.9306 C   0  0  0  0  0  0  0  0  0  0  0  0
    4.4792  -18.3353   21.2886 C   0  0  0  0  0  0  0  0  0  0  0  0
    3.3035  -18.7117   21.9067 C   0  0  0  0  0  0  0  0  0  0  0  0
   11.0379  -17.6743   18.4481 F   0  0  0  0  0  0  0  0  0  0  0  0
   11.0601  -15.9207   19.7417 F   0  0  0  0  0  0  0  0  0  0  0  0
   11.8806  -17.8155   20.4518 F   0  0  0  0  0  0  0  0  0  0  0  0
   -0.7519  -16.1787   18.2480 F   0  0  0  0  0  0  0  0  0  0  0  0
   -1.2863  -17.4806   16.6036 F   0  0  0  0  0  0  0  0  0  0  0  0
   -0.8677  -18.3260   18.5498 F   0  0  0  0  0  0  0  0  0  0  0  0
    7.4551  -10.9730   20.9654 F   0  0  0  0  0  0  0  0  0  0  0  0
    9.5625  -10.8015   20.4901 F   0  0  0  0  0  0  0  0  0  0  0  0
    8.1142   -9.6529   19.3282 F   0  0  0  0  0  0  0  0  0  0  0  0
    3.2435  -19.2466   23.1415 N   0  0  0  0  0  0  0  0  0  0  0  0
    5.6154  -16.0433   17.9734 N   0  0  0  0  0  0  0  0  0  0  0  0
    8.1613  -17.3131   14.3734 N   0  0  0  0  0  0  0  0  0  0  0  0
    4.2996  -17.7767   20.0374 N   0  0  0  0  0  0  0  0  0  0  0  0
    4.8251  -15.1800   16.0291 O   0  0  0  0  0  0  0  0  0  0  0  0
    4.6029  -15.5700   20.7913 O   0  0  0  0  0  0  0  0  0  0  0  0
    4.4209  -19.8298   24.7866 H   0  0  0  0  0  0  0  0  0  0  0  0
    6.5910  -19.2753   23.7682 H   0  0  0  0  0  0  0  0  0  0  0  0
    6.2039  -16.9877   19.7909 H   0  0  0  0  0  0  0  0  0  0  0  0
    8.4322  -16.4390   18.8302 H   0  0  0  0  0  0  0  0  0  0  0  0
   10.3264  -18.8366   21.8787 H   0  0  0  0  0  0  0  0  0  0  0  0
    8.0983  -19.3906   22.8380 H   0  0  0  0  0  0  0  0  0  0  0  0
    4.7420  -17.8058   16.4087 H   0  0  0  0  0  0  0  0  0  0  0  0
    3.0612  -19.1445   15.1507 H   0  0  0  0  0  0  0  0  0  0  0  0
    0.6358  -18.9597   15.7223 H   0  0  0  0  0  0  0  0  0  0  0  0
    1.5902  -16.0862   18.8019 H   0  0  0  0  0  0  0  0  0  0  0  0
    6.1155  -17.5417   14.8301 H   0  0  0  0  0  0  0  0  0  0  0  0
   10.2102  -16.8727   14.1594 H   0  0  0  0  0  0  0  0  0  0  0  0
   10.2504  -15.0186   15.7844 H   0  0  0  0  0  0  0  0  0  0  0  0
    3.8752  -15.0065   18.3656 H   0  0  0  0  0  0  0  0  0  0  0  0
    6.2545  -14.6055   18.0748 H   0  0  0  0  0  0  0  0  0  0  0  0
    6.3380  -12.7022   19.6906 H   0  0  0  0  0  0  0  0  0  0  0  0
   10.1695  -11.5136   18.0862 H   0  0  0  0  0  0  0  0  0  0  0  0
   10.1053  -13.4356   16.4992 H   0  0  0  0  0  0  0  0  0  0  0  0
    2.3608  -18.5664   21.3589 H   0  0  0  0  0  0  0  0  0  0  0  0
    6.4255  -16.3122   18.5498 H   0  0  0  0  0  0  0  0  0  0  0  0
    4.1484  -18.3695   19.2088 H   0  0  0  0  0  0  0  0  0  0  0  0
  1  2  2  0
  1 44  1  0
  2  3  1  0
  3  4  1  0
  3 33  2  0
  4  5  2  0
  4  9  1  0
  5  6  1  0
  6  7  2  0
  7  8  1  0
  7 11  1  0
  8  9  2  0
 10 19  1  0
 10 45  1  0
 10 48  2  0
 11 35  1  6
 11 36  1  0
 11 37  1  0
 12 13  2  0
 12 17  1  0
 12 24  1  0
 13 14  1  0
 14 15  2  0
 15 16  1  0
 16 17  2  0
 16 18  1  0
 18 38  1  1
 18 39  1  0
 18 40  1  0
 19 20  2  0
 19 23  1  0
 20 46  1  0
 21 22  1  0
 21 46  2  0
 22 23  2  0
 23 25  1  0
 24 32  1  0
 24 45  1  0
 25 26  2  0
 25 30  1  0
 26 27  1  0
 27 28  2  0
 28 29  1  0
 28 31  1  0
 29 30  2  0
 31 41  1  1
 31 42  1  0
 31 43  1  0
 32 47  1  0
 32 49  2  0
 33 34  1  0
 33 47  1  0
 34 44  2  0
  1 50  1  0
  2 51  1  0
  5 52  1  0
  6 53  1  0
  8 54  1  0
  9 55  1  0
 13 56  1  0
 14 57  1  0
 15 58  1  0
 17 59  1  0
 20 60  1  0
 21 61  1  0
 22 62  1  0
 24 63  1  1
 26 64  1  0
 27 65  1  0
 29 66  1  0
 30 67  1  0
 34 68  1  0
 45 69  1  0
 47 70  1  0
M  END
>  <filename_input>  (15) 
8EAB_VN2_docked.sdf

>  <pdb_id>  (15) 
8EAB_VN2

>  <pose_rank>  (15) 
14

>  <num_atoms_heavy>  (15) 
49

>  <num_torsions>  (15) 
10

>  <pose>  (15) 
[4.273893564248985, -16.025001235590835, 18.48249873467355, 1.8848052974796174, -0.4718722964503116, 2.404704853926738, 5.481957557820337, -2.3559991725493803, -12.971691076030288, -9.99774248729567, -1.878744728831066, 1.1594841745091047, -10.092315573085047, -0.20268505204145884, -2.064416405799577, -0.06000316480233764]

>  <energy>  (15) 
-620.523263475076

>  <inter_energy>  (15) 
-835.3146615377598

>  <intra_energy>  (15) 
219.96601764107538

>  <rmsd>  (15) 
7.4726

>  <sdf_rank>  (15) 
0

$$$$

     RDKit          3D

 70 74  0  0  0  0  0  0  0  0999 V2000
    7.0561  -19.1906   23.3328 C   0  0  0  0  0  0  0  0  0  0  0  0
    8.1747  -19.5031   22.5721 C   0  0  0  0  0  0  0  0  0  0  0  0
    8.2750  -19.0017   21.2766 C   0  0  0  0  0  0  0  0  0  0  0  0
    9.4477  -19.3707   20.4983 C   0  0  0  0  0  0  0  0  0  0  0  0
    9.6286  -18.8518   19.2140 C   0  0  0  0  0  0  0  0  0  0  0  0
   10.7571  -19.1854   18.4662 C   0  0  0  0  0  0  0  0  0  0  0  0
   11.7214  -20.0429   18.9961 C   0  0  0  0  0  0  0  0  0  0  0  0
   11.5422  -20.5579   20.2816 C   0  0  0  0  0  0  0  0  0  0  0  0
   10.4131  -20.2263   21.0302 C   0  0  0  0  0  0  0  0  0  0  0  0
    5.2311  -16.4041   16.6726 C   0  0  0  0  0  0  0  0  0  0  0  0
   12.9339  -20.3937   18.2113 C   0  0  1  0  0  0  0  0  0  0  0  0
    7.9415  -14.6261   17.9432 C   0  0  0  0  0  0  0  0  0  0  0  0
    9.0122  -14.6729   17.0401 C   0  0  0  0  0  0  0  0  0  0  0  0
    9.8818  -13.5888   16.9009 C   0  0  0  0  0  0  0  0  0  0  0  0
    9.6873  -12.4382   17.6666 C   0  0  0  0  0  0  0  0  0  0  0  0
    8.6235  -12.3780   18.5686 C   0  0  0  0  0  0  0  0  0  0  0  0
    7.7620  -13.4677   18.7029 C   0  0  0  0  0  0  0  0  0  0  0  0
    8.3792  -11.1738   19.4029 C   0  0  1  0  0  0  0  0  0  0  0  0
    4.0372  -16.0696   15.8915 C   0  0  0  0  0  0  0  0  0  0  0  0
    4.1741  -15.4609   14.6597 C   0  0  0  0  0  0  0  0  0  0  0  0
    1.8918  -15.3398   14.4074 C   0  0  0  0  0  0  0  0  0  0  0  0
    1.6616  -15.9488   15.6309 C   0  0  0  0  0  0  0  0  0  0  0  0
    2.7610  -16.3227   16.3941 C   0  0  0  0  0  0  0  0  0  0  0  0
    6.9768  -15.7826   18.1172 C   0  0  1  0  0  0  0  0  0  0  0  0
    2.5235  -16.9833   17.6585 C   0  0  0  0  0  0  0  0  0  0  0  0
    2.3362  -16.2364   18.8226 C   0  0  0  0  0  0  0  0  0  0  0  0
    2.1061  -16.8854   20.0369 C   0  0  0  0  0  0  0  0  0  0  0  0
    2.0768  -18.2779   20.0837 C   0  0  0  0  0  0  0  0  0  0  0  0
    2.2657  -19.0225   18.9206 C   0  0  0  0  0  0  0  0  0  0  0  0
    2.4839  -18.3755   17.7066 C   0  0  0  0  0  0  0  0  0  0  0  0
    1.8257  -18.9855   21.3629 C   0  0  1  0  0  0  0  0  0  0  0  0
    6.8674  -16.2485   19.5343 C   0  0  0  0  0  0  0  0  0  0  0  0
    7.2173  -18.2144   20.8157 C   0  0  0  0  0  0  0  0  0  0  0  0
    6.1287  -17.9769   21.6309 C   0  0  0  0  0  0  0  0  0  0  0  0
   13.6171  -21.4630   18.6949 F   0  0  0  0  0  0  0  0  0  0  0  0
   12.6015  -20.7022   16.9232 F   0  0  0  0  0  0  0  0  0  0  0  0
   13.8288  -19.3673   18.1397 F   0  0  0  0  0  0  0  0  0  0  0  0
    7.2692  -11.2688   20.1761 F   0  0  0  0  0  0  0  0  0  0  0  0
    9.4033  -10.9166   20.2555 F   0  0  0  0  0  0  0  0  0  0  0  0
    8.2299  -10.0442   18.6619 F   0  0  0  0  0  0  0  0  0  0  0  0
    1.6219  -18.1484   22.4106 F   0  0  0  0  0  0  0  0  0  0  0  0
    0.6969  -19.7360   21.2616 F   0  0  0  0  0  0  0  0  0  0  0  0
    2.8339  -19.8447   21.6959 F   0  0  0  0  0  0  0  0  0  0  0  0
    6.0183  -18.4440   22.8895 N   0  0  0  0  0  0  0  0  0  0  0  0
    5.6485  -15.5402   17.6311 N   0  0  0  0  0  0  0  0  0  0  0  0
    3.1223  -15.0962   13.8966 N   0  0  0  0  0  0  0  0  0  0  0  0
    7.1317  -17.6079   19.5770 N   0  0  0  0  0  0  0  0  0  0  0  0
    5.8284  -17.4236   16.3779 O   0  0  0  0  0  0  0  0  0  0  0  0
    6.7984  -15.4557   20.4639 O   0  0  0  0  0  0  0  0  0  0  0  0
    7.0105  -19.5748   24.3625 H   0  0  0  0  0  0  0  0  0  0  0  0
    8.9712  -20.1382   22.9871 H   0  0  0  0  0  0  0  0  0  0  0  0
    8.8739  -18.1738   18.7888 H   0  0  0  0  0  0  0  0  0  0  0  0
   10.8875  -18.7713   17.4555 H   0  0  0  0  0  0  0  0  0  0  0  0
   12.2994  -21.2322   20.7083 H   0  0  0  0  0  0  0  0  0  0  0  0
   10.2836  -20.6397   22.0413 H   0  0  0  0  0  0  0  0  0  0  0  0
    9.1699  -15.5762   16.4324 H   0  0  0  0  0  0  0  0  0  0  0  0
   10.7186  -13.6417   16.1889 H   0  0  0  0  0  0  0  0  0  0  0  0
   10.3696  -11.5820   17.5598 H   0  0  0  0  0  0  0  0  0  0  0  0
    6.9283  -13.4135   19.4185 H   0  0  0  0  0  0  0  0  0  0  0  0
    5.1884  -15.2638   14.2825 H   0  0  0  0  0  0  0  0  0  0  0  0
    1.0183  -15.0344   13.8126 H   0  0  0  0  0  0  0  0  0  0  0  0
    0.6372  -16.1312   15.9879 H   0  0  0  0  0  0  0  0  0  0  0  0
    7.4340  -16.5651   17.4939 H   0  0  0  0  0  0  0  0  0  0  0  0
    2.3699  -15.1376   18.7832 H   0  0  0  0  0  0  0  0  0  0  0  0
    1.9483  -16.2992   20.9543 H   0  0  0  0  0  0  0  0  0  0  0  0
    2.2425  -20.1215   18.9615 H   0  0  0  0  0  0  0  0  0  0  0  0
    2.6248  -18.9626   16.7871 H   0  0  0  0  0  0  0  0  0  0  0  0
    5.3032  -17.3709   21.2291 H   0  0  0  0  0  0  0  0  0  0  0  0
    5.0593  -14.7717   17.9820 H   0  0  0  0  0  0  0  0  0  0  0  0
    7.2605  -18.1505   18.7110 H   0  0  0  0  0  0  0  0  0  0  0  0
  1  2  2  0
  1 44  1  0
  2  3  1  0
  3  4  1  0
  3 33  2  0
  4  5  2  0
  4  9  1  0
  5  6  1  0
  6  7  2  0
  7  8  1  0
  7 11  1  0
  8  9  2  0
 10 19  1  0
 10 45  1  0
 10 48  2  0
 11 35  1  1
 11 36  1  0
 11 37  1  0
 12 13  2  0
 12 17  1  0
 12 24  1  0
 13 14  1  0
 14 15  2  0
 15 16  1  0
 16 17  2  0
 16 18  1  0
 18 38  1  1
 18 39  1  0
 18 40  1  0
 19 20  2  0
 19 23  1  0
 20 46  1  0
 21 22  1  0
 21 46  2  0
 22 23  2  0
 23 25  1  0
 24 32  1  0
 24 45  1  0
 25 26  2  0
 25 30  1  0
 26 27  1  0
 27 28  2  0
 28 29  1  0
 28 31  1  0
 29 30  2  0
 31 41  1  1
 31 42  1  0
 31 43  1  0
 32 47  1  0
 32 49  2  0
 33 34  1  0
 33 47  1  0
 34 44  2  0
  1 50  1  0
  2 51  1  0
  5 52  1  0
  6 53  1  0
  8 54  1  0
  9 55  1  0
 13 56  1  0
 14 57  1  0
 15 58  1  0
 17 59  1  0
 20 60  1  0
 21 61  1  0
 22 62  1  0
 24 63  1  6
 26 64  1  0
 27 65  1  0
 29 66  1  0
 30 67  1  0
 34 68  1  0
 45 69  1  0
 47 70  1  0
M  END
>  <filename_input>  (16) 
8EAB_VN2_docked.sdf

>  <pdb_id>  (16) 
8EAB_VN2

>  <pose_rank>  (16) 
15

>  <num_atoms_heavy>  (16) 
49

>  <num_torsions>  (16) 
10

>  <pose>  (16) 
[6.976757275110479, -15.782562232486645, 18.117166771366268, -0.6673912705603766, 4.67372704147436, 1.4003213837051667, -2.8821019290721672, -2.8503378439829663, -5.537256578921361, -3.890965715938909, -0.4965327894257991, 0.8919255598840895, 18.397607428473005, 30.391804725042782, 4.0133929185672095, -1.8745428881690818]

>  <energy>  (16) 
-623.3305408275178

>  <inter_energy>  (16) 
-682.4132897696866

>  <intra_energy>  (16) 
63.9437934914493

>  <rmsd>  (16) 
5.93536

>  <sdf_rank>  (16) 
0

$$$$

     RDKit          3D

 70 74  0  0  0  0  0  0  0  0999 V2000
   10.3407  -12.3319   19.9034 C   0  0  0  0  0  0  0  0  0  0  0  0
   10.7941  -13.5832   20.2990 C   0  0  0  0  0  0  0  0  0  0  0  0
   10.1150  -14.7187   19.8644 C   0  0  0  0  0  0  0  0  0  0  0  0
   10.6014  -16.0124   20.3195 C   0  0  0  0  0  0  0  0  0  0  0  0
   11.9089  -16.4110   20.0310 C   0  0  0  0  0  0  0  0  0  0  0  0
   12.3905  -17.6412   20.4768 C   0  0  0  0  0  0  0  0  0  0  0  0
   11.5686  -18.4887   21.2199 C   0  0  0  0  0  0  0  0  0  0  0  0
   10.2632  -18.0879   21.5117 C   0  0  0  0  0  0  0  0  0  0  0  0
    9.7796  -16.8583   21.0652 C   0  0  0  0  0  0  0  0  0  0  0  0
    4.0464  -17.4545   17.9762 C   0  0  0  0  0  0  0  0  0  0  0  0
   12.0777  -19.7961   21.7104 C   0  0  1  0  0  0  0  0  0  0  0  0
    6.5139  -16.6500   16.8708 C   0  0  0  0  0  0  0  0  0  0  0  0
    7.6373  -17.1670   16.2114 C   0  0  0  0  0  0  0  0  0  0  0  0
    7.8183  -16.9708   14.8404 C   0  0  0  0  0  0  0  0  0  0  0  0
    6.8707  -16.2527   14.1093 C   0  0  0  0  0  0  0  0  0  0  0  0
    5.7462  -15.7339   14.7538 C   0  0  0  0  0  0  0  0  0  0  0  0
    5.5759  -15.9325   16.1246 C   0  0  0  0  0  0  0  0  0  0  0  0
    4.7131  -14.9642   14.0150 C   0  0  1  0  0  0  0  0  0  0  0  0
    2.6104  -17.1986   18.1165 C   0  0  0  0  0  0  0  0  0  0  0  0
    1.8876  -16.7433   17.0316 C   0  0  0  0  0  0  0  0  0  0  0  0
   -0.0301  -16.6205   18.2943 C   0  0  0  0  0  0  0  0  0  0  0  0
    0.6159  -17.0757   19.4329 C   0  0  0  0  0  0  0  0  0  0  0  0
    1.9707  -17.3715   19.3438 C   0  0  0  0  0  0  0  0  0  0  0  0
    6.2841  -16.8471   18.3563 C   0  0  1  0  0  0  0  0  0  0  0  0
    2.6407  -17.8730   20.5233 C   0  0  0  0  0  0  0  0  0  0  0  0
    2.2222  -17.4797   21.7954 C   0  0  0  0  0  0  0  0  0  0  0  0
    2.8757  -17.9718   22.9265 C   0  0  0  0  0  0  0  0  0  0  0  0
    3.9522  -18.8447   22.7800 C   0  0  0  0  0  0  0  0  0  0  0  0
    4.3700  -19.2351   21.5088 C   0  0  0  0  0  0  0  0  0  0  0  0
    3.7112  -18.7536   20.3801 C   0  0  0  0  0  0  0  0  0  0  0  0
    4.6542  -19.3845   23.9699 C   0  0  1  0  0  0  0  0  0  0  0  0
    7.0670  -15.8948   19.2035 C   0  0  0  0  0  0  0  0  0  0  0  0
    8.9940  -14.5187   19.0554 C   0  0  0  0  0  0  0  0  0  0  0  0
    8.5964  -13.2365   18.7334 C   0  0  0  0  0  0  0  0  0  0  0  0
   12.9308  -19.6994   22.7624 F   0  0  0  0  0  0  0  0  0  0  0  0
   11.0466  -20.5897   22.1251 F   0  0  0  0  0  0  0  0  0  0  0  0
   12.7367  -20.4990   20.7455 F   0  0  0  0  0  0  0  0  0  0  0  0
    4.6447  -13.6608   14.3831 F   0  0  0  0  0  0  0  0  0  0  0  0
    4.9286  -14.9596   12.6751 F   0  0  0  0  0  0  0  0  0  0  0  0
    3.4630  -15.4714   14.1810 F   0  0  0  0  0  0  0  0  0  0  0  0
    4.0460  -20.4715   24.5070 F   0  0  0  0  0  0  0  0  0  0  0  0
    5.9042  -19.7911   23.6235 F   0  0  0  0  0  0  0  0  0  0  0  0
    4.8091  -18.4535   24.9571 F   0  0  0  0  0  0  0  0  0  0  0  0
    9.2459  -12.1269   19.1352 N   0  0  0  0  0  0  0  0  0  0  0  0
    4.9119  -16.7768   18.7705 N   0  0  0  0  0  0  0  0  0  0  0  0
    0.5699  -16.4573   17.0911 N   0  0  0  0  0  0  0  0  0  0  0  0
    8.1988  -15.5060   18.5053 N   0  0  0  0  0  0  0  0  0  0  0  0
    4.3972  -18.2277   17.1033 O   0  0  0  0  0  0  0  0  0  0  0  0
    6.5926  -15.4057   20.2200 O   0  0  0  0  0  0  0  0  0  0  0  0
   10.9082  -11.4503   20.2361 H   0  0  0  0  0  0  0  0  0  0  0  0
   11.6780  -13.6764   20.9471 H   0  0  0  0  0  0  0  0  0  0  0  0
   12.5643  -15.7483   19.4468 H   0  0  0  0  0  0  0  0  0  0  0  0
   13.4215  -17.9443   20.2420 H   0  0  0  0  0  0  0  0  0  0  0  0
    9.6096  -18.7488   22.0999 H   0  0  0  0  0  0  0  0  0  0  0  0
    8.7489  -16.5550   21.3011 H   0  0  0  0  0  0  0  0  0  0  0  0
    8.3869  -17.7354   16.7815 H   0  0  0  0  0  0  0  0  0  0  0  0
    8.7064  -17.3815   14.3377 H   0  0  0  0  0  0  0  0  0  0  0  0
    7.0093  -16.0961   13.0293 H   0  0  0  0  0  0  0  0  0  0  0  0
    4.6889  -15.5174   16.6255 H   0  0  0  0  0  0  0  0  0  0  0  0
    2.4105  -16.6073   16.0734 H   0  0  0  0  0  0  0  0  0  0  0  0
   -1.0997  -16.3758   18.3730 H   0  0  0  0  0  0  0  0  0  0  0  0
    0.0714  -17.1995   20.3806 H   0  0  0  0  0  0  0  0  0  0  0  0
    6.6389  -17.8763   18.5140 H   0  0  0  0  0  0  0  0  0  0  0  0
    1.3784  -16.7828   21.9066 H   0  0  0  0  0  0  0  0  0  0  0  0
    2.5419  -17.6715   23.9307 H   0  0  0  0  0  0  0  0  0  0  0  0
    5.2205  -19.9238   21.3970 H   0  0  0  0  0  0  0  0  0  0  0  0
    4.0354  -19.0680   19.3771 H   0  0  0  0  0  0  0  0  0  0  0  0
    7.6967  -13.1138   18.1125 H   0  0  0  0  0  0  0  0  0  0  0  0
    4.6086  -16.2535   19.6042 H   0  0  0  0  0  0  0  0  0  0  0  0
    8.4403  -15.9399   17.6029 H   0  0  0  0  0  0  0  0  0  0  0  0
  1  2  2  0
  1 44  1  0
  2  3  1  0
  3  4  1  0
  3 33  2  0
  4  5  2  0
  4  9  1  0
  5  6  1  0
  6  7  2  0
  7  8  1  0
  7 11  1  0
  8  9  2  0
 10 19  1  0
 10 45  1  0
 10 48  2  0
 11 35  1  1
 11 36  1  0
 11 37  1  0
 12 13  2  0
 12 17  1  0
 12 24  1  0
 13 14  1  0
 14 15  2  0
 15 16  1  0
 16 17  2  0
 16 18  1  0
 18 38  1  1
 18 39  1  0
 18 40  1  0
 19 20  2  0
 19 23  1  0
 20 46  1  0
 21 22  1  0
 21 46  2  0
 22 23  2  0
 23 25  1  0
 24 32  1  0
 24 45  1  0
 25 26  2  0
 25 30  1  0
 26 27  1  0
 27 28  2  0
 28 29  1  0
 28 31  1  0
 29 30  2  0
 31 41  1  1
 31 42  1  0
 31 43  1  0
 32 47  1  0
 32 49  2  0
 33 34  1  0
 33 47  1  0
 34 44  2  0
  1 50  1  0
  2 51  1  0
  5 52  1  0
  6 53  1  0
  8 54  1  0
  9 55  1  0
 13 56  1  0
 14 57  1  0
 15 58  1  0
 17 59  1  0
 20 60  1  0
 21 61  1  0
 22 62  1  0
 24 63  1  1
 26 64  1  0
 27 65  1  0
 29 66  1  0
 30 67  1  0
 34 68  1  0
 45 69  1  0
 47 70  1  0
M  END
>  <filename_input>  (17) 
8EAB_VN2_docked.sdf

>  <pdb_id>  (17) 
8EAB_VN2

>  <pose_rank>  (17) 
16

>  <num_atoms_heavy>  (17) 
49

>  <num_torsions>  (17) 
10

>  <pose>  (17) 
[6.284060182051252, -16.84706978731289, 18.3563474421107, -0.733247258239486, -0.6524634951969308, 0.31826677324110314, -3.6590109034993987, -1.645042981654403, 5.693695877319235, 2.8253588998002988, -5.793108292371718, 2.335705013638773, 1.2758068890114698, 2.8307250561566755, -0.2085346183074665, 2.309024651412026]

>  <energy>  (17) 
-703.616741118879

>  <inter_energy>  (17) 
-881.8755671770218

>  <intra_energy>  (17) 
177.48653263297348

>  <rmsd>  (17) 
5.57861

>  <sdf_rank>  (17) 
0

$$$$

     RDKit          3D

 70 74  0  0  0  0  0  0  0  0999 V2000
    7.5402  -17.2503   13.5370 C   0  0  0  0  0  0  0  0  0  0  0  0
    6.2711  -17.4191   14.0742 C   0  0  0  0  0  0  0  0  0  0  0  0
    5.9262  -16.7227   15.2299 C   0  0  0  0  0  0  0  0  0  0  0  0
    4.5976  -16.9434   15.7805 C   0  0  0  0  0  0  0  0  0  0  0  0
    4.3046  -18.1349   16.4486 C   0  0  0  0  0  0  0  0  0  0  0  0
    3.0397  -18.3496   16.9948 C   0  0  0  0  0  0  0  0  0  0  0  0
    2.0511  -17.3721   16.8805 C   0  0  0  0  0  0  0  0  0  0  0  0
    2.3459  -16.1797   16.2164 C   0  0  0  0  0  0  0  0  0  0  0  0
    3.6101  -15.9641   15.6682 C   0  0  0  0  0  0  0  0  0  0  0  0
    5.8907  -14.8624   19.8077 C   0  0  0  0  0  0  0  0  0  0  0  0
    0.7042  -17.5870   17.4710 C   0  0  1  0  0  0  0  0  0  0  0  0
    7.2974  -12.8085   18.7781 C   0  0  0  0  0  0  0  0  0  0  0  0
    7.3401  -11.7926   19.7426 C   0  0  0  0  0  0  0  0  0  0  0  0
    8.5465  -11.4204   20.3402 C   0  0  0  0  0  0  0  0  0  0  0  0
    9.7301  -12.0659   19.9787 C   0  0  0  0  0  0  0  0  0  0  0  0
    9.7009  -13.0807   19.0205 C   0  0  0  0  0  0  0  0  0  0  0  0
    8.4911  -13.4431   18.4267 C   0  0  0  0  0  0  0  0  0  0  0  0
   10.9360  -13.7941   18.6063 C   0  0  1  0  0  0  0  0  0  0  0  0
    5.2479  -16.0277   20.4212 C   0  0  0  0  0  0  0  0  0  0  0  0
    3.8700  -16.0983   20.4773 C   0  0  0  0  0  0  0  0  0  0  0  0
    3.9661  -18.1001   21.6046 C   0  0  0  0  0  0  0  0  0  0  0  0
    5.3520  -18.1126   21.5909 C   0  0  0  0  0  0  0  0  0  0  0  0
    6.0111  -17.0497   20.9854 C   0  0  0  0  0  0  0  0  0  0  0  0
    6.0055  -13.2400   18.1122 C   0  0  1  0  0  0  0  0  0  0  0  0
    7.4566  -17.0742   20.9456 C   0  0  0  0  0  0  0  0  0  0  0  0
    8.2007  -16.7881   22.0912 C   0  0  0  0  0  0  0  0  0  0  0  0
    9.5955  -16.8165   22.0407 C   0  0  0  0  0  0  0  0  0  0  0  0
   10.2394  -17.1186   20.8423 C   0  0  0  0  0  0  0  0  0  0  0  0
    9.4949  -17.4024   19.6986 C   0  0  0  0  0  0  0  0  0  0  0  0
    8.1032  -17.3855   19.7510 C   0  0  0  0  0  0  0  0  0  0  0  0
   11.7204  -17.1616   20.7706 C   0  0  1  0  0  0  0  0  0  0  0  0
    6.2146  -13.8429   16.7593 C   0  0  0  0  0  0  0  0  0  0  0  0
    6.9031  -15.8958   15.7895 C   0  0  0  0  0  0  0  0  0  0  0  0
    8.1504  -15.8089   15.2043 C   0  0  0  0  0  0  0  0  0  0  0  0
    0.3604  -16.6732   18.4148 F   0  0  0  0  0  0  0  0  0  0  0  0
   -0.2605  -17.5229   16.5065 F   0  0  0  0  0  0  0  0  0  0  0  0
    0.5768  -18.8111   18.0580 F   0  0  0  0  0  0  0  0  0  0  0  0
   10.7124  -15.0673   18.1966 F   0  0  0  0  0  0  0  0  0  0  0  0
   11.5695  -13.1794   17.5755 F   0  0  0  0  0  0  0  0  0  0  0  0
   11.8556  -13.8726   19.6041 F   0  0  0  0  0  0  0  0  0  0  0  0
   12.3135  -16.0167   21.1914 F   0  0  0  0  0  0  0  0  0  0  0  0
   12.1935  -18.1451   21.5811 F   0  0  0  0  0  0  0  0  0  0  0  0
   12.1787  -17.4405   19.5146 F   0  0  0  0  0  0  0  0  0  0  0  0
    8.4991  -16.4661   14.0813 N   0  0  0  0  0  0  0  0  0  0  0  0
    5.2046  -14.1505   18.8795 N   0  0  0  0  0  0  0  0  0  0  0  0
    3.2071  -17.1238   21.0522 N   0  0  0  0  0  0  0  0  0  0  0  0
    6.7572  -15.1081   16.9156 N   0  0  0  0  0  0  0  0  0  0  0  0
    7.0427  -14.6249   20.1229 O   0  0  0  0  0  0  0  0  0  0  0  0
    5.7323  -13.3389   15.7539 O   0  0  0  0  0  0  0  0  0  0  0  0
    7.7818  -17.7891   12.6088 H   0  0  0  0  0  0  0  0  0  0  0  0
    5.5476  -18.0939   13.5933 H   0  0  0  0  0  0  0  0  0  0  0  0
    5.0786  -18.9105   16.5446 H   0  0  0  0  0  0  0  0  0  0  0  0
    2.8209  -19.2925   17.5174 H   0  0  0  0  0  0  0  0  0  0  0  0
    1.5731  -15.4023   16.1246 H   0  0  0  0  0  0  0  0  0  0  0  0
    3.8290  -15.0206   15.1466 H   0  0  0  0  0  0  0  0  0  0  0  0
    6.4106  -11.2812   20.0332 H   0  0  0  0  0  0  0  0  0  0  0  0
    8.5637  -10.6199   21.0944 H   0  0  0  0  0  0  0  0  0  0  0  0
   10.6823  -11.7761   20.4471 H   0  0  0  0  0  0  0  0  0  0  0  0
    8.4774  -14.2413   17.6700 H   0  0  0  0  0  0  0  0  0  0  0  0
    3.2849  -15.2800   20.0323 H   0  0  0  0  0  0  0  0  0  0  0  0
    3.4491  -18.9375   22.0960 H   0  0  0  0  0  0  0  0  0  0  0  0
    5.9144  -18.9409   22.0466 H   0  0  0  0  0  0  0  0  0  0  0  0
    5.4582  -12.2899   18.0245 H   0  0  0  0  0  0  0  0  0  0  0  0
    7.6887  -16.5404   23.0327 H   0  0  0  0  0  0  0  0  0  0  0  0
   10.1846  -16.6011   22.9443 H   0  0  0  0  0  0  0  0  0  0  0  0
   10.0067  -17.6399   18.7543 H   0  0  0  0  0  0  0  0  0  0  0  0
    7.5152  -17.6176   18.8507 H   0  0  0  0  0  0  0  0  0  0  0  0
    8.9034  -15.1656   15.6829 H   0  0  0  0  0  0  0  0  0  0  0  0
    4.1899  -14.2550   18.7366 H   0  0  0  0  0  0  0  0  0  0  0  0
    7.0434  -15.4515   17.8435 H   0  0  0  0  0  0  0  0  0  0  0  0
  1  2  2  0
  1 44  1  0
  2  3  1  0
  3  4  1  0
  3 33  2  0
  4  5  2  0
  4  9  1  0
  5  6  1  0
  6  7  2  0
  7  8  1  0
  7 11  1  0
  8  9  2  0
 10 19  1  0
 10 45  1  0
 10 48  2  0
 11 35  1  1
 11 36  1  0
 11 37  1  0
 12 13  2  0
 12 17  1  0
 12 24  1  0
 13 14  1  0
 14 15  2  0
 15 16  1  0
 16 17  2  0
 16 18  1  0
 18 38  1  6
 18 39  1  0
 18 40  1  0
 19 20  2  0
 19 23  1  0
 20 46  1  0
 21 22  1  0
 21 46  2  0
 22 23  2  0
 23 25  1  0
 24 32  1  0
 24 45  1  0
 25 26  2  0
 25 30  1  0
 26 27  1  0
 27 28  2  0
 28 29  1  0
 28 31  1  0
 29 30  2  0
 31 41  1  1
 31 42  1  0
 31 43  1  0
 32 47  1  0
 32 49  2  0
 33 34  1  0
 33 47  1  0
 34 44  2  0
  1 50  1  0
  2 51  1  0
  5 52  1  0
  6 53  1  0
  8 54  1  0
  9 55  1  0
 13 56  1  0
 14 57  1  0
 15 58  1  0
 17 59  1  0
 20 60  1  0
 21 61  1  0
 22 62  1  0
 24 63  1  6
 26 64  1  0
 27 65  1  0
 29 66  1  0
 30 67  1  0
 34 68  1  0
 45 69  1  0
 47 70  1  0
M  END
>  <filename_input>  (18) 
8EAB_VN2_docked.sdf

>  <pdb_id>  (18) 
8EAB_VN2

>  <pose_rank>  (18) 
17

>  <num_atoms_heavy>  (18) 
49

>  <num_torsions>  (18) 
10

>  <pose>  (18) 
[6.0055255456145815, -13.239980647636548, 18.112185361954083, 1.5417140866931915, 0.7530139527706464, -1.3035477834367113, -2.370861006438392, 2.9790230132668007, 4.512077876520322, -6.006368808649709, 5.994414627893403, -0.08793237821354408, -3.266038547315852, 5.985803758974591, 2.1167865295432886, -3.1920841797423605]

>  <energy>  (18) 
-647.1990855724858

>  <inter_energy>  (18) 
-882.3955909270553

>  <intra_energy>  (18) 
223.95181309127167

>  <rmsd>  (18) 
7.70188

>  <sdf_rank>  (18) 
0

$$$$

     RDKit          3D

 70 74  0  0  0  0  0  0  0  0999 V2000
    3.0030  -15.8807   13.8900 C   0  0  0  0  0  0  0  0  0  0  0  0
    2.5140  -16.3215   15.1124 C   0  0  0  0  0  0  0  0  0  0  0  0
    3.3034  -16.1759   16.2505 C   0  0  0  0  0  0  0  0  0  0  0  0
    2.7709  -16.6728   17.5101 C   0  0  0  0  0  0  0  0  0  0  0  0
    1.8075  -17.6845   17.5137 C   0  0  0  0  0  0  0  0  0  0  0  0
    1.3029  -18.1798   18.7155 C   0  0  0  0  0  0  0  0  0  0  0  0
    1.7583  -17.6689   19.9310 C   0  0  0  0  0  0  0  0  0  0  0  0
    2.7244  -16.6607   19.9270 C   0  0  0  0  0  0  0  0  0  0  0  0
    3.2289  -16.1632   18.7256 C   0  0  0  0  0  0  0  0  0  0  0  0
    9.1703  -16.3460   19.6905 C   0  0  0  0  0  0  0  0  0  0  0  0
    1.2357  -18.1999   21.2172 C   0  0  1  0  0  0  0  0  0  0  0  0
    8.3470  -14.3995   17.6944 C   0  0  0  0  0  0  0  0  0  0  0  0
    9.2407  -14.4840   16.6181 C   0  0  0  0  0  0  0  0  0  0  0  0
    9.9657  -13.3666   16.1977 C   0  0  0  0  0  0  0  0  0  0  0  0
    9.8020  -12.1446   16.8520 C   0  0  0  0  0  0  0  0  0  0  0  0
    8.9135  -12.0466   17.9244 C   0  0  0  0  0  0  0  0  0  0  0  0
    8.1962  -13.1695   18.3391 C   0  0  0  0  0  0  0  0  0  0  0  0
    8.7082  -10.7664   18.6488 C   0  0  1  0  0  0  0  0  0  0  0  0
   10.2238  -17.2913   20.0697 C   0  0  0  0  0  0  0  0  0  0  0  0
   11.5384  -17.0148   19.7500 C   0  0  0  0  0  0  0  0  0  0  0  0
   12.2333  -19.0108   20.6558 C   0  0  0  0  0  0  0  0  0  0  0  0
   10.9436  -19.3676   21.0167 C   0  0  0  0  0  0  0  0  0  0  0  0
    9.9114  -18.4874   20.7157 C   0  0  0  0  0  0  0  0  0  0  0  0
    7.5417  -15.5909   18.1746 C   0  0  1  0  0  0  0  0  0  0  0  0
    8.5685  -18.8449   21.1160 C   0  0  0  0  0  0  0  0  0  0  0  0
    8.2286  -18.9156   22.4679 C   0  0  0  0  0  0  0  0  0  0  0  0
    6.9286  -19.2602   22.8419 C   0  0  0  0  0  0  0  0  0  0  0  0
    5.9783  -19.5446   21.8631 C   0  0  0  0  0  0  0  0  0  0  0  0
    6.3198  -19.4752   20.5134 C   0  0  0  0  0  0  0  0  0  0  0  0
    7.6135  -19.1203   20.1392 C   0  0  0  0  0  0  0  0  0  0  0  0
    4.5898  -19.9047   22.2405 C   0  0  1  0  0  0  0  0  0  0  0  0
    6.6218  -16.1380   17.1297 C   0  0  0  0  0  0  0  0  0  0  0  0
    4.5635  -15.5975   16.0808 C   0  0  0  0  0  0  0  0  0  0  0  0
    4.9815  -15.2129   14.8225 C   0  0  0  0  0  0  0  0  0  0  0  0
    1.7643  -19.3974   21.5782 F   0  0  0  0  0  0  0  0  0  0  0  0
    1.5072  -17.3372   22.2404 F   0  0  0  0  0  0  0  0  0  0  0  0
   -0.1177  -18.3657   21.2061 F   0  0  0  0  0  0  0  0  0  0  0  0
    7.9302   -9.8835   17.9749 F   0  0  0  0  0  0  0  0  0  0  0  0
    8.1097  -10.9423   19.8541 F   0  0  0  0  0  0  0  0  0  0  0  0
    9.8745  -10.1203   18.9123 F   0  0  0  0  0  0  0  0  0  0  0  0
    3.7783  -18.8294   22.3982 F   0  0  0  0  0  0  0  0  0  0  0  0
    4.0246  -20.6563   21.2588 F   0  0  0  0  0  0  0  0  0  0  0  0
    4.5316  -20.6517   23.3825 F   0  0  0  0  0  0  0  0  0  0  0  0
    4.2287  -15.3359   13.7122 N   0  0  0  0  0  0  0  0  0  0  0  0
    8.3217  -16.6810   18.6870 N   0  0  0  0  0  0  0  0  0  0  0  0
   12.5587  -17.8496   20.0391 N   0  0  0  0  0  0  0  0  0  0  0  0
    5.4862  -15.3459   17.0782 N   0  0  0  0  0  0  0  0  0  0  0  0
    9.1470  -15.2710   20.2621 O   0  0  0  0  0  0  0  0  0  0  0  0
    6.9937  -16.9901   16.3340 O   0  0  0  0  0  0  0  0  0  0  0  0
    2.3519  -15.9808   13.0091 H   0  0  0  0  0  0  0  0  0  0  0  0
    1.5164  -16.7797   15.1810 H   0  0  0  0  0  0  0  0  0  0  0  0
    1.4437  -18.0941   16.5598 H   0  0  0  0  0  0  0  0  0  0  0  0
    0.5436  -18.9756   18.7050 H   0  0  0  0  0  0  0  0  0  0  0  0
    3.0913  -16.2546   20.8811 H   0  0  0  0  0  0  0  0  0  0  0  0
    3.9890  -15.3682   18.7364 H   0  0  0  0  0  0  0  0  0  0  0  0
    9.3729  -15.4437   16.0972 H   0  0  0  0  0  0  0  0  0  0  0  0
   10.6646  -13.4496   15.3524 H   0  0  0  0  0  0  0  0  0  0  0  0
   10.3708  -11.2621   16.5239 H   0  0  0  0  0  0  0  0  0  0  0  0
    7.5008  -13.0846   19.1872 H   0  0  0  0  0  0  0  0  0  0  0  0
   11.7647  -16.0694   19.2353 H   0  0  0  0  0  0  0  0  0  0  0  0
   13.0454  -19.7165   20.8850 H   0  0  0  0  0  0  0  0  0  0  0  0
   10.7427  -20.3210   21.5272 H   0  0  0  0  0  0  0  0  0  0  0  0
    6.9616  -15.1623   19.0052 H   0  0  0  0  0  0  0  0  0  0  0  0
    8.9842  -18.7000   23.2377 H   0  0  0  0  0  0  0  0  0  0  0  0
    6.6551  -19.3071   23.9064 H   0  0  0  0  0  0  0  0  0  0  0  0
    5.5671  -19.7009   19.7436 H   0  0  0  0  0  0  0  0  0  0  0  0
    7.8811  -19.0574   19.0741 H   0  0  0  0  0  0  0  0  0  0  0  0
    5.9879  -14.7808   14.7207 H   0  0  0  0  0  0  0  0  0  0  0  0
    8.2433  -17.6409   18.3220 H   0  0  0  0  0  0  0  0  0  0  0  0
    5.3343  -14.5917   17.7631 H   0  0  0  0  0  0  0  0  0  0  0  0
  1  2  2  0
  1 44  1  0
  2  3  1  0
  3  4  1  0
  3 33  2  0
  4  5  2  0
  4  9  1  0
  5  6  1  0
  6  7  2  0
  7  8  1  0
  7 11  1  0
  8  9  2  0
 10 19  1  0
 10 45  1  0
 10 48  2  0
 11 35  1  1
 11 36  1  0
 11 37  1  0
 12 13  2  0
 12 17  1  0
 12 24  1  0
 13 14  1  0
 14 15  2  0
 15 16  1  0
 16 17  2  0
 16 18  1  0
 18 38  1  6
 18 39  1  0
 18 40  1  0
 19 20  2  0
 19 23  1  0
 20 46  1  0
 21 22  1  0
 21 46  2  0
 22 23  2  0
 23 25  1  0
 24 32  1  0
 24 45  1  0
 25 26  2  0
 25 30  1  0
 26 27  1  0
 27 28  2  0
 28 29  1  0
 28 31  1  0
 29 30  2  0
 31 41  1  1
 31 42  1  0
 31 43  1  0
 32 47  1  0
 32 49  2  0
 33 34  1  0
 33 47  1  0
 34 44  2  0
  1 50  1  0
  2 51  1  0
  5 52  1  0
  6 53  1  0
  8 54  1  0
  9 55  1  0
 13 56  1  0
 14 57  1  0
 15 58  1  0
 17 59  1  0
 20 60  1  0
 21 61  1  0
 22 62  1  0
 24 63  1  1
 26 64  1  0
 27 65  1  0
 29 66  1  0
 30 67  1  0
 34 68  1  0
 45 69  1  0
 47 70  1  0
M  END
>  <filename_input>  (19) 
8EAB_VN2_docked.sdf

>  <pdb_id>  (19) 
8EAB_VN2

>  <pose_rank>  (19) 
18

>  <num_atoms_heavy>  (19) 
49

>  <num_torsions>  (19) 
10

>  <pose>  (19) 
[7.541676064242734, -15.590861000314996, 18.174616014123615, -0.7313450382428087, -2.909567169577773, 2.282235218278144, 0.1538761164990195, 1.6795777302604868, -0.3990442115845252, 8.883548200799748, 2.1958902232469617, 2.399996341480641, 0.3410175963585613, 3.0808480656924595, 1.2507647569845692, -3.9262382743402098]

>  <energy>  (19) 
-618.7231402624122

>  <inter_energy>  (19) 
-749.2050576006086

>  <intra_energy>  (19) 
132.062671537448

>  <rmsd>  (19) 
8.04761

>  <sdf_rank>  (19) 
0

$$$$

     RDKit          3D

 70 74  0  0  0  0  0  0  0  0999 V2000
   10.3939  -13.4724   16.2451 C   0  0  0  0  0  0  0  0  0  0  0  0
   10.9344  -14.5896   16.8676 C   0  0  0  0  0  0  0  0  0  0  0  0
   10.1083  -15.3998   17.6427 C   0  0  0  0  0  0  0  0  0  0  0  0
   10.7133  -16.5471   18.3021 C   0  0  0  0  0  0  0  0  0  0  0  0
   10.4083  -17.8421   17.8760 C   0  0  0  0  0  0  0  0  0  0  0  0
   10.9954  -18.9479   18.4898 C   0  0  0  0  0  0  0  0  0  0  0  0
   11.8980  -18.7710   19.5386 C   0  0  0  0  0  0  0  0  0  0  0  0
   12.2058  -17.4762   19.9612 C   0  0  0  0  0  0  0  0  0  0  0  0
   11.6182  -16.3692   19.3492 C   0  0  0  0  0  0  0  0  0  0  0  0
    3.8896  -16.1458   18.5787 C   0  0  0  0  0  0  0  0  0  0  0  0
   12.5386  -19.9433   20.1901 C   0  0  1  0  0  0  0  0  0  0  0  0
    6.3808  -16.8421   20.8348 C   0  0  0  0  0  0  0  0  0  0  0  0
    5.5288  -17.7382   21.4946 C   0  0  0  0  0  0  0  0  0  0  0  0
    6.0262  -18.6374   22.4406 C   0  0  0  0  0  0  0  0  0  0  0  0
    7.3901  -18.6516   22.7371 C   0  0  0  0  0  0  0  0  0  0  0  0
    8.2498  -17.7653   22.0856 C   0  0  0  0  0  0  0  0  0  0  0  0
    7.7427  -16.8684   21.1444 C   0  0  0  0  0  0  0  0  0  0  0  0
    9.7074  -17.7462   22.3701 C   0  0  1  0  0  0  0  0  0  0  0  0
    3.0507  -16.9314   17.6697 C   0  0  0  0  0  0  0  0  0  0  0  0
    3.0546  -16.6478   16.3184 C   0  0  0  0  0  0  0  0  0  0  0  0
    1.4767  -18.2721   15.9195 C   0  0  0  0  0  0  0  0  0  0  0  0
    1.4114  -18.6253   17.2581 C   0  0  0  0  0  0  0  0  0  0  0  0
    2.2171  -17.9377   18.1575 C   0  0  0  0  0  0  0  0  0  0  0  0
    5.8755  -15.8556   19.8004 C   0  0  1  0  0  0  0  0  0  0  0  0
    2.1711  -18.3231   19.5507 C   0  0  0  0  0  0  0  0  0  0  0  0
    2.6021  -19.5895   19.9488 C   0  0  0  0  0  0  0  0  0  0  0  0
    2.5544  -19.9494   21.2967 C   0  0  0  0  0  0  0  0  0  0  0  0
    2.0645  -19.0462   22.2381 C   0  0  0  0  0  0  0  0  0  0  0  0
    1.6328  -17.7825   21.8387 C   0  0  0  0  0  0  0  0  0  0  0  0
    1.6908  -17.4184   20.4956 C   0  0  0  0  0  0  0  0  0  0  0  0
    2.0134  -19.4072   23.6759 C   0  0  1  0  0  0  0  0  0  0  0  0
    6.9477  -14.9550   19.2743 C   0  0  0  0  0  0  0  0  0  0  0  0
    8.7689  -15.0197   17.7551 C   0  0  0  0  0  0  0  0  0  0  0  0
    8.3217  -13.8761   17.1243 C   0  0  0  0  0  0  0  0  0  0  0  0
   12.8752  -20.9396   19.3310 F   0  0  0  0  0  0  0  0  0  0  0  0
   13.6929  -19.5737   20.8192 F   0  0  0  0  0  0  0  0  0  0  0  0
   11.7479  -20.5111   21.1450 F   0  0  0  0  0  0  0  0  0  0  0  0
   10.4570  -18.3008   21.3854 F   0  0  0  0  0  0  0  0  0  0  0  0
   10.1873  -16.4877   22.5363 F   0  0  0  0  0  0  0  0  0  0  0  0
   10.0276  -18.4118   23.5111 F   0  0  0  0  0  0  0  0  0  0  0  0
    1.5649  -18.4017   24.4682 F   0  0  0  0  0  0  0  0  0  0  0  0
    1.1501  -20.4406   23.8622 F   0  0  0  0  0  0  0  0  0  0  0  0
    3.2226  -19.8206   24.1582 F   0  0  0  0  0  0  0  0  0  0  0  0
    9.1025  -13.0859   16.3623 N   0  0  0  0  0  0  0  0  0  0  0  0
    5.2083  -16.4471   18.6761 N   0  0  0  0  0  0  0  0  0  0  0  0
    2.2876  -17.3068   15.4245 N   0  0  0  0  0  0  0  0  0  0  0  0
    7.7861  -15.6935   18.4549 N   0  0  0  0  0  0  0  0  0  0  0  0
    3.3422  -15.2915   19.2521 O   0  0  0  0  0  0  0  0  0  0  0  0
    6.8777  -13.7395   19.3964 O   0  0  0  0  0  0  0  0  0  0  0  0
   11.0584  -12.8621   15.6159 H   0  0  0  0  0  0  0  0  0  0  0  0
   12.0010  -14.8315   16.7502 H   0  0  0  0  0  0  0  0  0  0  0  0
    9.6986  -17.9908   17.0488 H   0  0  0  0  0  0  0  0  0  0  0  0
   10.7461  -19.9626   18.1461 H   0  0  0  0  0  0  0  0  0  0  0  0
   12.9190  -17.3278   20.7854 H   0  0  0  0  0  0  0  0  0  0  0  0
   11.8685  -15.3546   19.6925 H   0  0  0  0  0  0  0  0  0  0  0  0
    4.4532  -17.7333   21.2641 H   0  0  0  0  0  0  0  0  0  0  0  0
    5.3442  -19.3333   22.9511 H   0  0  0  0  0  0  0  0  0  0  0  0
    7.7860  -19.3583   23.4812 H   0  0  0  0  0  0  0  0  0  0  0  0
    8.4264  -16.1711   20.6382 H   0  0  0  0  0  0  0  0  0  0  0  0
    3.7140  -15.8467   15.9530 H   0  0  0  0  0  0  0  0  0  0  0  0
    0.8278  -18.8107   15.2133 H   0  0  0  0  0  0  0  0  0  0  0  0
    0.7404  -19.4275   17.5991 H   0  0  0  0  0  0  0  0  0  0  0  0
    5.1372  -15.2742   20.3720 H   0  0  0  0  0  0  0  0  0  0  0  0
    2.9789  -20.3032   19.2013 H   0  0  0  0  0  0  0  0  0  0  0  0
    2.9025  -20.9432   21.6149 H   0  0  0  0  0  0  0  0  0  0  0  0
    1.2462  -17.0724   22.5846 H   0  0  0  0  0  0  0  0  0  0  0  0
    1.3580  -16.4183   20.1811 H   0  0  0  0  0  0  0  0  0  0  0  0
    7.2662  -13.5935   17.2513 H   0  0  0  0  0  0  0  0  0  0  0  0
    5.6922  -17.0521   17.9973 H   0  0  0  0  0  0  0  0  0  0  0  0
    7.6799  -16.7145   18.3699 H   0  0  0  0  0  0  0  0  0  0  0  0
  1  2  2  0
  1 44  1  0
  2  3  1  0
  3  4  1  0
  3 33  2  0
  4  5  2  0
  4  9  1  0
  5  6  1  0
  6  7  2  0
  7  8  1  0
  7 11  1  0
  8  9  2  0
 10 19  1  0
 10 45  1  0
 10 48  2  0
 11 35  1  6
 11 36  1  0
 11 37  1  0
 12 13  2  0
 12 17  1  0
 12 24  1  0
 13 14  1  0
 14 15  2  0
 15 16  1  0
 16 17  2  0
 16 18  1  0
 18 38  1  6
 18 39  1  0
 18 40  1  0
 19 20  2  0
 19 23  1  0
 20 46  1  0
 21 22  1  0
 21 46  2  0
 22 23  2  0
 23 25  1  0
 24 32  1  0
 24 45  1  0
 25 26  2  0
 25 30  1  0
 26 27  1  0
 27 28  2  0
 28 29  1  0
 28 31  1  0
 29 30  2  0
 31 41  1  1
 31 42  1  0
 31 43  1  0
 32 47  1  0
 32 49  2  0
 33 34  1  0
 33 47  1  0
 34 44  2  0
  1 50  1  0
  2 51  1  0
  5 52  1  0
  6 53  1  0
  8 54  1  0
  9 55  1  0
 13 56  1  0
 14 57  1  0
 15 58  1  0
 17 59  1  0
 20 60  1  0
 21 61  1  0
 22 62  1  0
 24 63  1  1
 26 64  1  0
 27 65  1  0
 29 66  1  0
 30 67  1  0
 34 68  1  0
 45 69  1  0
 47 70  1  0
M  END
>  <filename_input>  (20) 
8EAB_VN2_docked.sdf

>  <pdb_id>  (20) 
8EAB_VN2

>  <pose_rank>  (20) 
19

>  <num_atoms_heavy>  (20) 
49

>  <num_torsions>  (20) 
10

>  <pose>  (20) 
[5.875514745988201, -15.85562405498003, 19.800435033946385, 2.787702435659377, 1.1305986970152326, -0.0091496449745737, 4.313095320719789, -4.09852960849791, -5.651179103022346, -6.972464936406783, -4.122381309287693, -2.310626716926688, -3.292132182720075, -2.748431902968183, -1.1008109445286087, 1.6770646524547297]

>  <energy>  (20) 
-709.8309688633022

>  <inter_energy>  (20) 
-874.4041130209032

>  <intra_energy>  (20) 
156.49709319101294

>  <rmsd>  (20) 
5.94108

>  <sdf_rank>  (20) 
0

$$$$

     RDKit          3D

 70 74  0  0  0  0  0  0  0  0999 V2000
   13.7627  -19.5411   20.5702 C   0  0  0  0  0  0  0  0  0  0  0  0
   13.0115  -20.6893   20.3586 C   0  0  0  0  0  0  0  0  0  0  0  0
   11.6300  -20.5795   20.2202 C   0  0  0  0  0  0  0  0  0  0  0  0
   10.8709  -21.8056   20.0262 C   0  0  0  0  0  0  0  0  0  0  0  0
    9.9731  -22.2369   21.0059 C   0  0  0  0  0  0  0  0  0  0  0  0
    9.2282  -23.4012   20.8227 C   0  0  0  0  0  0  0  0  0  0  0  0
    9.3716  -24.1490   19.6538 C   0  0  0  0  0  0  0  0  0  0  0  0
   10.2659  -23.7152   18.6731 C   0  0  0  0  0  0  0  0  0  0  0  0
   11.0128  -22.5515   18.8556 C   0  0  0  0  0  0  0  0  0  0  0  0
    6.0924  -18.3420   20.9652 C   0  0  0  0  0  0  0  0  0  0  0  0
    8.5721  -25.3844   19.4443 C   0  0  1  0  0  0  0  0  0  0  0  0
    7.5788  -16.3207   18.9348 C   0  0  0  0  0  0  0  0  0  0  0  0
    6.8878  -16.4252   17.7200 C   0  0  0  0  0  0  0  0  0  0  0  0
    6.5625  -15.2868   16.9789 C   0  0  0  0  0  0  0  0  0  0  0  0
    6.9252  -14.0236   17.4491 C   0  0  0  0  0  0  0  0  0  0  0  0
    7.6121  -13.9056   18.6587 C   0  0  0  0  0  0  0  0  0  0  0  0
    7.9355  -15.0492   19.3902 C   0  0  0  0  0  0  0  0  0  0  0  0
    8.0171  -12.5817   19.1964 C   0  0  1  0  0  0  0  0  0  0  0  0
    5.1587  -18.2497   22.0908 C   0  0  0  0  0  0  0  0  0  0  0  0
    5.6320  -18.3631   23.3831 C   0  0  0  0  0  0  0  0  0  0  0  0
    3.5046  -18.1726   24.2347 C   0  0  0  0  0  0  0  0  0  0  0  0
    2.9438  -18.0473   22.9734 C   0  0  0  0  0  0  0  0  0  0  0  0
    3.7907  -18.0879   21.8725 C   0  0  0  0  0  0  0  0  0  0  0  0
    7.9447  -17.5346   19.7661 C   0  0  1  0  0  0  0  0  0  0  0  0
    3.2110  -17.9297   20.5571 C   0  0  0  0  0  0  0  0  0  0  0  0
    2.6724  -19.0278   19.8847 C   0  0  0  0  0  0  0  0  0  0  0  0
    2.1141  -18.8622   18.6160 C   0  0  0  0  0  0  0  0  0  0  0  0
    2.1084  -17.6022   18.0206 C   0  0  0  0  0  0  0  0  0  0  0  0
    2.6483  -16.5068   18.6926 C   0  0  0  0  0  0  0  0  0  0  0  0
    3.1951  -16.6690   19.9632 C   0  0  0  0  0  0  0  0  0  0  0  0
    1.5126  -17.4047   16.6766 C   0  0  1  0  0  0  0  0  0  0  0  0
    9.4109  -17.6362   20.0442 C   0  0  0  0  0  0  0  0  0  0  0  0
   11.0808  -19.2990   20.3188 C   0  0  0  0  0  0  0  0  0  0  0  0
   11.9002  -18.2142   20.5590 C   0  0  0  0  0  0  0  0  0  0  0  0
    7.4436  -25.4487   20.1968 F   0  0  0  0  0  0  0  0  0  0  0  0
    8.1708  -25.4835   18.1427 F   0  0  0  0  0  0  0  0  0  0  0  0
    9.2781  -26.5194   19.7139 F   0  0  0  0  0  0  0  0  0  0  0  0
    7.5872  -11.5389   18.4437 F   0  0  0  0  0  0  0  0  0  0  0  0
    7.5358  -12.3597   20.4458 F   0  0  0  0  0  0  0  0  0  0  0  0
    9.3659  -12.4469   19.2965 F   0  0  0  0  0  0  0  0  0  0  0  0
    0.1929  -17.0936   16.7129 F   0  0  0  0  0  0  0  0  0  0  0  0
    2.1228  -16.3644   16.0494 F   0  0  0  0  0  0  0  0  0  0  0  0
    1.6703  -18.4925   15.8658 F   0  0  0  0  0  0  0  0  0  0  0  0
   13.2386  -18.2989   20.6852 N   0  0  0  0  0  0  0  0  0  0  0  0
    7.2520  -17.6409   21.0184 N   0  0  0  0  0  0  0  0  0  0  0  0
    4.8307  -18.3184   24.4683 N   0  0  0  0  0  0  0  0  0  0  0  0
    9.7440  -18.9731   20.1907 N   0  0  0  0  0  0  0  0  0  0  0  0
    5.7489  -19.0041   20.0026 O   0  0  0  0  0  0  0  0  0  0  0  0
   10.1559  -16.6759   19.9024 O   0  0  0  0  0  0  0  0  0  0  0  0
   14.8547  -19.6480   20.6495 H   0  0  0  0  0  0  0  0  0  0  0  0
   13.5009  -21.6728   20.3011 H   0  0  0  0  0  0  0  0  0  0  0  0
    9.8528  -21.6526   21.9301 H   0  0  0  0  0  0  0  0  0  0  0  0
    8.5255  -23.7311   21.6020 H   0  0  0  0  0  0  0  0  0  0  0  0
   10.3826  -24.2972   17.7470 H   0  0  0  0  0  0  0  0  0  0  0  0
   11.7146  -22.2214   18.0756 H   0  0  0  0  0  0  0  0  0  0  0  0
    6.5976  -17.4177   17.3448 H   0  0  0  0  0  0  0  0  0  0  0  0
    6.0214  -15.3856   16.0263 H   0  0  0  0  0  0  0  0  0  0  0  0
    6.6706  -13.1245   16.8688 H   0  0  0  0  0  0  0  0  0  0  0  0
    8.4801  -14.9478   20.3405 H   0  0  0  0  0  0  0  0  0  0  0  0
    6.7132  -18.4962   23.5353 H   0  0  0  0  0  0  0  0  0  0  0  0
    2.8288  -18.1524   25.1023 H   0  0  0  0  0  0  0  0  0  0  0  0
    1.8586  -17.9193   22.8474 H   0  0  0  0  0  0  0  0  0  0  0  0
    7.6213  -18.3658   19.1223 H   0  0  0  0  0  0  0  0  0  0  0  0
    2.6877  -20.0225   20.3540 H   0  0  0  0  0  0  0  0  0  0  0  0
    1.6799  -19.7239   18.0878 H   0  0  0  0  0  0  0  0  0  0  0  0
    2.6425  -15.5139   18.2192 H   0  0  0  0  0  0  0  0  0  0  0  0
    3.6138  -15.8033   20.4973 H   0  0  0  0  0  0  0  0  0  0  0  0
   11.4328  -17.2229   20.6527 H   0  0  0  0  0  0  0  0  0  0  0  0
    7.6072  -17.2185   21.8881 H   0  0  0  0  0  0  0  0  0  0  0  0
    9.0168  -19.7024   20.2037 H   0  0  0  0  0  0  0  0  0  0  0  0
  1  2  2  0
  1 44  1  0
  2  3  1  0
  3  4  1  0
  3 33  2  0
  4  5  2  0
  4  9  1  0
  5  6  1  0
  6  7  2  0
  7  8  1  0
  7 11  1  0
  8  9  2  0
 10 19  1  0
 10 45  1  0
 10 48  2  0
 11 35  1  1
 11 36  1  0
 11 37  1  0
 12 13  2  0
 12 17  1  0
 12 24  1  0
 13 14  1  0
 14 15  2  0
 15 16  1  0
 16 17  2  0
 16 18  1  0
 18 38  1  6
 18 39  1  0
 18 40  1  0
 19 20  2  0
 19 23  1  0
 20 46  1  0
 21 22  1  0
 21 46  2  0
 22 23  2  0
 23 25  1  0
 24 32  1  0
 24 45  1  0
 25 26  2  0
 25 30  1  0
 26 27  1  0
 27 28  2  0
 28 29  1  0
 28 31  1  0
 29 30  2  0
 31 41  1  1
 31 42  1  0
 31 43  1  0
 32 47  1  0
 32 49  2  0
 33 34  1  0
 33 47  1  0
 34 44  2  0
  1 50  1  0
  2 51  1  0
  5 52  1  0
  6 53  1  0
  8 54  1  0
  9 55  1  0
 13 56  1  0
 14 57  1  0
 15 58  1  0
 17 59  1  0
 20 60  1  0
 21 61  1  0
 22 62  1  0
 24 63  1  6
 26 64  1  0
 27 65  1  0
 29 66  1  0
 30 67  1  0
 34 68  1  0
 45 69  1  0
 47 70  1  0
M  END
>  <filename_input>  (21) 
8EAB_VN2_docked.sdf

>  <pdb_id>  (21) 
8EAB_VN2

>  <pose_rank>  (21) 
20

>  <num_atoms_heavy>  (21) 
49

>  <num_torsions>  (21) 
10

>  <pose>  (21) 
[7.944662403415025, -17.534615063832913, 19.766137126697124, -0.06185431201975607, -4.787565839789597, 3.8214412516154805, -2.9079968456011125, 0.40299597577669105, 6.500041476597423, -0.09182278624781733, -0.4457104013318687, 2.4448476622714606, -0.9005012537841501, 4.563929307689377, 2.8125970032003695, 1.3798741686702571]

>  <energy>  (21) 
-683.0197591716865

>  <inter_energy>  (21) 
-778.7748146195499

>  <intra_energy>  (21) 
96.3392898106227

>  <rmsd>  (21) 
5.20662

>  <sdf_rank>  (21) 
0

$$$$

     RDKit          3D

 70 74  0  0  0  0  0  0  0  0999 V2000
   12.2322  -19.4542   21.4949 C   0  0  0  0  0  0  0  0  0  0  0  0
   12.1849  -18.3446   20.6616 C   0  0  0  0  0  0  0  0  0  0  0  0
   10.9480  -17.7936   20.3362 C   0  0  0  0  0  0  0  0  0  0  0  0
   10.9337  -16.6478   19.4395 C   0  0  0  0  0  0  0  0  0  0  0  0
   11.6121  -15.4770   19.7870 C   0  0  0  0  0  0  0  0  0  0  0  0
   11.6190  -14.3791   18.9274 C   0  0  0  0  0  0  0  0  0  0  0  0
   10.9472  -14.4400   17.7064 C   0  0  0  0  0  0  0  0  0  0  0  0
   10.2730  -15.6120   17.3576 C   0  0  0  0  0  0  0  0  0  0  0  0
   10.2639  -16.7105   18.2170 C   0  0  0  0  0  0  0  0  0  0  0  0
    5.2486  -16.6278   19.5142 C   0  0  0  0  0  0  0  0  0  0  0  0
   10.9602  -13.2793   16.7781 C   0  0  1  0  0  0  0  0  0  0  0  0
    5.0689  -18.4763   21.8627 C   0  0  0  0  0  0  0  0  0  0  0  0
    5.0677  -19.0779   23.1286 C   0  0  0  0  0  0  0  0  0  0  0  0
    3.9434  -19.7612   23.5975 C   0  0  0  0  0  0  0  0  0  0  0  0
    2.8003  -19.8489   22.8013 C   0  0  0  0  0  0  0  0  0  0  0  0
    2.7879  -19.2525   21.5391 C   0  0  0  0  0  0  0  0  0  0  0  0
    3.9174  -18.5748   21.0781 C   0  0  0  0  0  0  0  0  0  0  0  0
    1.5935  -19.3209   20.6590 C   0  0  1  0  0  0  0  0  0  0  0  0
    4.9281  -16.5419   18.0869 C   0  0  0  0  0  0  0  0  0  0  0  0
    4.1237  -17.5031   17.5075 C   0  0  0  0  0  0  0  0  0  0  0  0
    4.3428  -16.5166   15.4421 C   0  0  0  0  0  0  0  0  0  0  0  0
    5.1555  -15.5102   15.9398 C   0  0  0  0  0  0  0  0  0  0  0  0
    5.4578  -15.5224   17.2960 C   0  0  0  0  0  0  0  0  0  0  0  0
    6.2699  -17.7241   21.3240 C   0  0  1  0  0  0  0  0  0  0  0  0
    6.2829  -14.4579   17.8228 C   0  0  0  0  0  0  0  0  0  0  0  0
    7.5370  -14.7385   18.3675 C   0  0  0  0  0  0  0  0  0  0  0  0
    8.3250  -13.7023   18.8714 C   0  0  0  0  0  0  0  0  0  0  0  0
    7.8503  -12.3925   18.8397 C   0  0  0  0  0  0  0  0  0  0  0  0
    6.5970  -12.1140   18.2970 C   0  0  0  0  0  0  0  0  0  0  0  0
    5.8149  -13.1458   17.7835 C   0  0  0  0  0  0  0  0  0  0  0  0
    8.6762  -11.2769   19.3629 C   0  0  1  0  0  0  0  0  0  0  0  0
    7.5708  -18.3927   21.6371 C   0  0  0  0  0  0  0  0  0  0  0  0
    9.8155  -18.4138   20.8689 C   0  0  0  0  0  0  0  0  0  0  0  0
    9.9531  -19.5319   21.6669 C   0  0  0  0  0  0  0  0  0  0  0  0
    9.9685  -12.3792   17.0021 F   0  0  0  0  0  0  0  0  0  0  0  0
   12.1343  -12.5901   16.8848 F   0  0  0  0  0  0  0  0  0  0  0  0
   10.8527  -13.6508   15.4705 F   0  0  0  0  0  0  0  0  0  0  0  0
    1.2290  -18.1183   20.1491 F   0  0  0  0  0  0  0  0  0  0  0  0
    1.7827  -20.1345   19.5895 F   0  0  0  0  0  0  0  0  0  0  0  0
    0.4983  -19.8093   21.2989 F   0  0  0  0  0  0  0  0  0  0  0  0
    9.5700  -11.6650   20.3064 F   0  0  0  0  0  0  0  0  0  0  0  0
    9.4106  -10.7343   18.3558 F   0  0  0  0  0  0  0  0  0  0  0  0
    7.9229  -10.2632   19.8829 F   0  0  0  0  0  0  0  0  0  0  0  0
   11.1406  -20.0729   22.0012 N   0  0  0  0  0  0  0  0  0  0  0  0
    6.2380  -17.4652   19.9129 N   0  0  0  0  0  0  0  0  0  0  0  0
    3.8092  -17.5079   16.1950 N   0  0  0  0  0  0  0  0  0  0  0  0
    8.5052  -18.0143   20.6866 N   0  0  0  0  0  0  0  0  0  0  0  0
    4.5630  -15.9799   20.2844 O   0  0  0  0  0  0  0  0  0  0  0  0
    7.7566  -18.9600   22.7054 O   0  0  0  0  0  0  0  0  0  0  0  0
   13.2210  -19.8563   21.7605 H   0  0  0  0  0  0  0  0  0  0  0  0
   13.1122  -17.9066   20.2638 H   0  0  0  0  0  0  0  0  0  0  0  0
   12.1456  -15.4207   20.7473 H   0  0  0  0  0  0  0  0  0  0  0  0
   12.1557  -13.4624   19.2130 H   0  0  0  0  0  0  0  0  0  0  0  0
    9.7435  -15.6695   16.3952 H   0  0  0  0  0  0  0  0  0  0  0  0
    9.7281  -17.6274   17.9307 H   0  0  0  0  0  0  0  0  0  0  0  0
    5.9647  -19.0109   23.7616 H   0  0  0  0  0  0  0  0  0  0  0  0
    3.9587  -20.2295   24.5927 H   0  0  0  0  0  0  0  0  0  0  0  0
    1.9126  -20.3858   23.1669 H   0  0  0  0  0  0  0  0  0  0  0  0
    3.9006  -18.1107   20.0810 H   0  0  0  0  0  0  0  0  0  0  0  0
    3.7200  -18.3028   18.1459 H   0  0  0  0  0  0  0  0  0  0  0  0
    4.1166  -16.5097   14.3656 H   0  0  0  0  0  0  0  0  0  0  0  0
    5.5502  -14.7238   15.2797 H   0  0  0  0  0  0  0  0  0  0  0  0
    6.2001  -16.7618   21.8523 H   0  0  0  0  0  0  0  0  0  0  0  0
    7.9039  -15.7750   18.3997 H   0  0  0  0  0  0  0  0  0  0  0  0
    9.3179  -13.9191   19.2923 H   0  0  0  0  0  0  0  0  0  0  0  0
    6.2254  -11.0789   18.2741 H   0  0  0  0  0  0  0  0  0  0  0  0
    4.8293  -12.9254   17.3476 H   0  0  0  0  0  0  0  0  0  0  0  0
    9.0398  -20.0088   22.0523 H   0  0  0  0  0  0  0  0  0  0  0  0
    6.9126  -17.8820   19.2555 H   0  0  0  0  0  0  0  0  0  0  0  0
    8.2313  -17.4519   19.8684 H   0  0  0  0  0  0  0  0  0  0  0  0
  1  2  2  0
  1 44  1  0
  2  3  1  0
  3  4  1  0
  3 33  2  0
  4  5  2  0
  4  9  1  0
  5  6  1  0
  6  7  2  0
  7  8  1  0
  7 11  1  0
  8  9  2  0
 10 19  1  0
 10 45  1  0
 10 48  2  0
 11 35  1  1
 11 36  1  0
 11 37  1  0
 12 13  2  0
 12 17  1  0
 12 24  1  0
 13 14  1  0
 14 15  2  0
 15 16  1  0
 16 17  2  0
 16 18  1  0
 18 38  1  6
 18 39  1  0
 18 40  1  0
 19 20  2  0
 19 23  1  0
 20 46  1  0
 21 22  1  0
 21 46  2  0
 22 23  2  0
 23 25  1  0
 24 32  1  0
 24 45  1  0
 25 26  2  0
 25 30  1  0
 26 27  1  0
 27 28  2  0
 28 29  1  0
 28 31  1  0
 29 30  2  0
 31 41  1  1
 31 42  1  0
 31 43  1  0
 32 47  1  0
 32 49  2  0
 33 34  1  0
 33 47  1  0
 34 44  2  0
  1 50  1  0
  2 51  1  0
  5 52  1  0
  6 53  1  0
  8 54  1  0
  9 55  1  0
 13 56  1  0
 14 57  1  0
 15 58  1  0
 17 59  1  0
 20 60  1  0
 21 61  1  0
 22 62  1  0
 24 63  1  1
 26 64  1  0
 27 65  1  0
 29 66  1  0
 30 67  1  0
 34 68  1  0
 45 69  1  0
 47 70  1  0
M  END
>  <filename_input>  (22) 
8EAB_VN2_docked.sdf

>  <pdb_id>  (22) 
8EAB_VN2

>  <pose_rank>  (22) 
21

>  <num_atoms_heavy>  (22) 
49

>  <num_torsions>  (22) 
10

>  <pose>  (22) 
[6.269902608509621, -17.72414584773393, 21.323995666500085, -3.0417966788344906, 0.6933397833244577, -0.8228917803900866, 1.9275386663378322, 2.6265649530248227, -0.22453661214397722, 2.1277367149197306, -1.0002134173277495, 0.4273803879523006, -1.8464047296565118, -1.5323167491809802, -0.2107969576336687, -0.5272047457757916]

>  <energy>  (22) 
-628.8329368806591

>  <inter_energy>  (22) 
-888.320424318537

>  <intra_energy>  (22) 
258.6264998154437

>  <rmsd>  (22) 
5.7644

>  <sdf_rank>  (22) 
0

$$$$

     RDKit          3D

 70 74  0  0  0  0  0  0  0  0999 V2000
    6.1739  -18.8180   23.5370 C   0  0  0  0  0  0  0  0  0  0  0  0
    7.1047  -17.8806   23.1098 C   0  0  0  0  0  0  0  0  0  0  0  0
    7.3267  -17.7194   21.7444 C   0  0  0  0  0  0  0  0  0  0  0  0
    8.3281  -16.7472   21.3330 C   0  0  0  0  0  0  0  0  0  0  0  0
    7.9343  -15.5278   20.7764 C   0  0  0  0  0  0  0  0  0  0  0  0
    8.8851  -14.5821   20.3944 C   0  0  0  0  0  0  0  0  0  0  0  0
   10.2442  -14.8448   20.5665 C   0  0  0  0  0  0  0  0  0  0  0  0
   10.6371  -16.0620   21.1268 C   0  0  0  0  0  0  0  0  0  0  0  0
    9.6873  -17.0095   21.5080 C   0  0  0  0  0  0  0  0  0  0  0  0
    3.6512  -17.5913   16.8893 C   0  0  0  0  0  0  0  0  0  0  0  0
   11.2642  -13.8373   20.1742 C   0  0  1  0  0  0  0  0  0  0  0  0
    6.5321  -16.5776   16.9324 C   0  0  0  0  0  0  0  0  0  0  0  0
    5.7453  -15.4441   16.6868 C   0  0  0  0  0  0  0  0  0  0  0  0
    6.3288  -14.2353   16.3004 C   0  0  0  0  0  0  0  0  0  0  0  0
    7.7143  -14.1462   16.1569 C   0  0  0  0  0  0  0  0  0  0  0  0
    8.5095  -15.2675   16.4003 C   0  0  0  0  0  0  0  0  0  0  0  0
    7.9168  -16.4716   16.7826 C   0  0  0  0  0  0  0  0  0  0  0  0
    9.9872  -15.2174   16.2599 C   0  0  1  0  0  0  0  0  0  0  0  0
    2.3561  -18.1069   16.4375 C   0  0  0  0  0  0  0  0  0  0  0  0
    2.0972  -18.2160   15.0855 C   0  0  0  0  0  0  0  0  0  0  0  0
   -0.0340  -18.9725   15.5012 C   0  0  0  0  0  0  0  0  0  0  0  0
    0.1401  -18.8975   16.8742 C   0  0  0  0  0  0  0  0  0  0  0  0
    1.3651  -18.4524   17.3562 C   0  0  0  0  0  0  0  0  0  0  0  0
    5.9325  -17.9040   17.3565 C   0  0  1  0  0  0  0  0  0  0  0  0
    1.5586  -18.3996   18.7884 C   0  0  0  0  0  0  0  0  0  0  0  0
    1.7649  -19.5715   19.5180 C   0  0  0  0  0  0  0  0  0  0  0  0
    1.9521  -19.5075   20.8998 C   0  0  0  0  0  0  0  0  0  0  0  0
    1.9198  -18.2738   21.5471 C   0  0  0  0  0  0  0  0  0  0  0  0
    1.7120  -17.1045   20.8174 C   0  0  0  0  0  0  0  0  0  0  0  0
    1.5365  -17.1664   19.4370 C   0  0  0  0  0  0  0  0  0  0  0  0
    2.1247  -18.1847   23.0135 C   0  0  1  0  0  0  0  0  0  0  0  0
    5.5887  -17.9550   18.8114 C   0  0  0  0  0  0  0  0  0  0  0  0
    6.5943  -18.5365   20.8801 C   0  0  0  0  0  0  0  0  0  0  0  0
    5.7088  -19.4632   21.3929 C   0  0  0  0  0  0  0  0  0  0  0  0
   11.6670  -13.0317   21.1904 F   0  0  0  0  0  0  0  0  0  0  0  0
   12.3896  -14.4498   19.7018 F   0  0  0  0  0  0  0  0  0  0  0  0
   10.8319  -13.0119   19.1787 F   0  0  0  0  0  0  0  0  0  0  0  0
   10.5123  -13.9928   16.5121 F   0  0  0  0  0  0  0  0  0  0  0  0
   10.6180  -16.0718   17.1048 F   0  0  0  0  0  0  0  0  0  0  0  0
   10.4073  -15.5611   15.0138 F   0  0  0  0  0  0  0  0  0  0  0  0
    2.2950  -19.3919   23.6079 F   0  0  0  0  0  0  0  0  0  0  0  0
    3.2541  -17.4765   23.2797 F   0  0  0  0  0  0  0  0  0  0  0  0
    1.1031  -17.5386   23.6494 F   0  0  0  0  0  0  0  0  0  0  0  0
    5.4727  -19.6265   22.7090 N   0  0  0  0  0  0  0  0  0  0  0  0
    4.7707  -18.3065   16.6166 N   0  0  0  0  0  0  0  0  0  0  0  0
    0.9190  -18.6532   14.5933 N   0  0  0  0  0  0  0  0  0  0  0  0
    6.6502  -18.5202   19.4995 N   0  0  0  0  0  0  0  0  0  0  0  0
    3.6501  -16.5654   17.5453 O   0  0  0  0  0  0  0  0  0  0  0  0
    4.6223  -17.3538   19.2608 O   0  0  0  0  0  0  0  0  0  0  0  0
    5.9949  -18.9094   24.6184 H   0  0  0  0  0  0  0  0  0  0  0  0
    7.6594  -17.2732   23.8402 H   0  0  0  0  0  0  0  0  0  0  0  0
    6.8646  -15.3117   20.6384 H   0  0  0  0  0  0  0  0  0  0  0  0
    8.5624  -13.6262   19.9561 H   0  0  0  0  0  0  0  0  0  0  0  0
   11.7067  -16.2757   21.2690 H   0  0  0  0  0  0  0  0  0  0  0  0
   10.0102  -17.9649   21.9473 H   0  0  0  0  0  0  0  0  0  0  0  0
    4.6529  -15.5073   16.7999 H   0  0  0  0  0  0  0  0  0  0  0  0
    5.6974  -13.3550   16.1096 H   0  0  0  0  0  0  0  0  0  0  0  0
    8.1779  -13.1960   15.8531 H   0  0  0  0  0  0  0  0  0  0  0  0
    8.5503  -17.3514   16.9691 H   0  0  0  0  0  0  0  0  0  0  0  0
    2.8888  -17.9331   14.3760 H   0  0  0  0  0  0  0  0  0  0  0  0
   -1.0096  -19.3135   15.1245 H   0  0  0  0  0  0  0  0  0  0  0  0
   -0.6688  -19.1823   17.5631 H   0  0  0  0  0  0  0  0  0  0  0  0
    6.7451  -18.6108   17.1329 H   0  0  0  0  0  0  0  0  0  0  0  0
    1.7798  -20.5442   19.0047 H   0  0  0  0  0  0  0  0  0  0  0  0
    2.1247  -20.4284   21.4761 H   0  0  0  0  0  0  0  0  0  0  0  0
    1.6866  -16.1326   21.3318 H   0  0  0  0  0  0  0  0  0  0  0  0
    1.3808  -16.2431   18.8597 H   0  0  0  0  0  0  0  0  0  0  0  0
    5.1641  -20.1058   20.6854 H   0  0  0  0  0  0  0  0  0  0  0  0
    4.7859  -19.0769   15.9331 H   0  0  0  0  0  0  0  0  0  0  0  0
    7.4571  -18.9164   18.9968 H   0  0  0  0  0  0  0  0  0  0  0  0
  1  2  2  0
  1 44  1  0
  2  3  1  0
  3  4  1  0
  3 33  2  0
  4  5  2  0
  4  9  1  0
  5  6  1  0
  6  7  2  0
  7  8  1  0
  7 11  1  0
  8  9  2  0
 10 19  1  0
 10 45  1  0
 10 48  2  0
 11 35  1  1
 11 36  1  0
 11 37  1  0
 12 13  2  0
 12 17  1  0
 12 24  1  0
 13 14  1  0
 14 15  2  0
 15 16  1  0
 16 17  2  0
 16 18  1  0
 18 38  1  1
 18 39  1  0
 18 40  1  0
 19 20  2  0
 19 23  1  0
 20 46  1  0
 21 22  1  0
 21 46  2  0
 22 23  2  0
 23 25  1  0
 24 32  1  0
 24 45  1  0
 25 26  2  0
 25 30  1  0
 26 27  1  0
 27 28  2  0
 28 29  1  0
 28 31  1  0
 29 30  2  0
 31 41  1  1
 31 42  1  0
 31 43  1  0
 32 47  1  0
 32 49  2  0
 33 34  1  0
 33 47  1  0
 34 44  2  0
  1 50  1  0
  2 51  1  0
  5 52  1  0
  6 53  1  0
  8 54  1  0
  9 55  1  0
 13 56  1  0
 14 57  1  0
 15 58  1  0
 17 59  1  0
 20 60  1  0
 21 61  1  0
 22 62  1  0
 24 63  1  1
 26 64  1  0
 27 65  1  0
 29 66  1  0
 30 67  1  0
 34 68  1  0
 45 69  1  0
 47 70  1  0
M  END
>  <filename_input>  (23) 
8EAB_VN2_docked.sdf

>  <pdb_id>  (23) 
8EAB_VN2

>  <pose_rank>  (23) 
22

>  <num_atoms_heavy>  (23) 
49

>  <num_torsions>  (23) 
10

>  <pose>  (23) 
[5.932502453159871, -17.90395924991302, 17.35653766161637, -0.5099554554985697, 4.7287752581565785, -0.4667980048478632, -0.16925902435934692, 0.854394686034044, -2.6239608402924888, -0.41745552314964013, 2.3405486295077536, 0.8448465345165738, 0.08918818345860487, -0.6501770209317758, -1.0287976845561833, 2.656283909236533]

>  <energy>  (23) 
-686.6708177236837

>  <inter_energy>  (23) 
-900.0752587876256

>  <intra_energy>  (23) 
224.70962708761877

>  <rmsd>  (23) 
4.99087

>  <sdf_rank>  (23) 
0

$$$$

     RDKit          3D

 70 74  0  0  0  0  0  0  0  0999 V2000
    7.6135  -15.3703   13.5850 C   0  0  0  0  0  0  0  0  0  0  0  0
    8.1340  -14.8071   14.7424 C   0  0  0  0  0  0  0  0  0  0  0  0
    7.5202  -15.0772   15.9630 C   0  0  0  0  0  0  0  0  0  0  0  0
    8.0758  -14.4493   17.1522 C   0  0  0  0  0  0  0  0  0  0  0  0
    7.3241  -13.5138   17.8674 C   0  0  0  0  0  0  0  0  0  0  0  0
    7.8404  -12.9187   19.0178 C   0  0  0  0  0  0  0  0  0  0  0  0
    9.1171  -13.2544   19.4686 C   0  0  0  0  0  0  0  0  0  0  0  0
    9.8663  -14.1927   18.7558 C   0  0  0  0  0  0  0  0  0  0  0  0
    9.3518  -14.7876   17.6041 C   0  0  0  0  0  0  0  0  0  0  0  0
    6.8173  -18.1725   19.2103 C   0  0  0  0  0  0  0  0  0  0  0  0
    9.6703  -12.6348   20.7012 C   0  0  1  0  0  0  0  0  0  0  0  0
    3.3091  -17.1372   18.6069 C   0  0  0  0  0  0  0  0  0  0  0  0
    3.2054  -15.9687   19.3737 C   0  0  0  0  0  0  0  0  0  0  0  0
    1.9827  -15.3081   19.5136 C   0  0  0  0  0  0  0  0  0  0  0  0
    0.8440  -15.8111   18.8823 C   0  0  0  0  0  0  0  0  0  0  0  0
    0.9341  -16.9733   18.1141 C   0  0  0  0  0  0  0  0  0  0  0  0
    2.1596  -17.6280   17.9831 C   0  0  0  0  0  0  0  0  0  0  0  0
   -0.2516  -17.5433   17.4250 C   0  0  1  0  0  0  0  0  0  0  0  0
    7.7870  -18.2387   20.3068 C   0  0  0  0  0  0  0  0  0  0  0  0
    9.1387  -18.1921   20.0284 C   0  0  0  0  0  0  0  0  0  0  0  0
    9.6591  -18.4339   22.2550 C   0  0  0  0  0  0  0  0  0  0  0  0
    8.3246  -18.4867   22.6254 C   0  0  0  0  0  0  0  0  0  0  0  0
    7.3629  -18.3880   21.6272 C   0  0  0  0  0  0  0  0  0  0  0  0
    4.6205  -17.8774   18.4309 C   0  0  1  0  0  0  0  0  0  0  0  0
    5.9697  -18.4150   22.0141 C   0  0  0  0  0  0  0  0  0  0  0  0
    5.5624  -19.1306   23.1411 C   0  0  0  0  0  0  0  0  0  0  0  0
    4.2150  -19.1478   23.5055 C   0  0  0  0  0  0  0  0  0  0  0  0
    3.2798  -18.4600   22.7345 C   0  0  0  0  0  0  0  0  0  0  0  0
    3.6879  -17.7472   21.6083 C   0  0  0  0  0  0  0  0  0  0  0  0
    5.0337  -17.7200   21.2506 C   0  0  0  0  0  0  0  0  0  0  0  0
    1.8448  -18.4597   23.1101 C   0  0  1  0  0  0  0  0  0  0  0  0
    5.2597  -17.6322   17.1010 C   0  0  0  0  0  0  0  0  0  0  0  0
    6.3926  -15.9013   15.9392 C   0  0  0  0  0  0  0  0  0  0  0  0
    5.9258  -16.3962   14.7380 C   0  0  0  0  0  0  0  0  0  0  0  0
   11.0255  -12.6707   20.7795 F   0  0  0  0  0  0  0  0  0  0  0  0
    9.3169  -11.3181   20.7790 F   0  0  0  0  0  0  0  0  0  0  0  0
    9.2047  -13.2233   21.8398 F   0  0  0  0  0  0  0  0  0  0  0  0
   -1.0846  -18.2197   18.2542 F   0  0  0  0  0  0  0  0  0  0  0  0
   -1.0141  -16.5909   16.8307 F   0  0  0  0  0  0  0  0  0  0  0  0
    0.0846  -18.4111   16.4345 F   0  0  0  0  0  0  0  0  0  0  0  0
    1.0110  -18.3061   22.0514 F   0  0  0  0  0  0  0  0  0  0  0  0
    1.5147  -19.6520   23.6735 F   0  0  0  0  0  0  0  0  0  0  0  0
    1.5421  -17.4985   24.0320 F   0  0  0  0  0  0  0  0  0  0  0  0
    6.5116  -16.1548   13.5492 N   0  0  0  0  0  0  0  0  0  0  0  0
    5.6024  -17.6172   19.4445 N   0  0  0  0  0  0  0  0  0  0  0  0
   10.0911  -18.2775   20.9809 N   0  0  0  0  0  0  0  0  0  0  0  0
    5.6551  -16.3058   17.0356 N   0  0  0  0  0  0  0  0  0  0  0  0
    7.1335  -18.6785   18.1487 O   0  0  0  0  0  0  0  0  0  0  0  0
    5.5642  -18.5560   16.3585 O   0  0  0  0  0  0  0  0  0  0  0  0
    8.1302  -15.1655   12.6358 H   0  0  0  0  0  0  0  0  0  0  0  0
    9.0195  -14.1561   14.6959 H   0  0  0  0  0  0  0  0  0  0  0  0
    6.3159  -13.2442   17.5198 H   0  0  0  0  0  0  0  0  0  0  0  0
    7.2392  -12.1825   19.5715 H   0  0  0  0  0  0  0  0  0  0  0  0
   10.8726  -14.4654   19.1063 H   0  0  0  0  0  0  0  0  0  0  0  0
    9.9529  -15.5246   17.0512 H   0  0  0  0  0  0  0  0  0  0  0  0
    4.0994  -15.5661   19.8723 H   0  0  0  0  0  0  0  0  0  0  0  0
    1.9173  -14.3929   20.1203 H   0  0  0  0  0  0  0  0  0  0  0  0
   -0.1208  -15.2938   18.9897 H   0  0  0  0  0  0  0  0  0  0  0  0
    2.2214  -18.5451   17.3789 H   0  0  0  0  0  0  0  0  0  0  0  0
    9.4542  -18.0800   18.9806 H   0  0  0  0  0  0  0  0  0  0  0  0
   10.4167  -18.5250   23.0473 H   0  0  0  0  0  0  0  0  0  0  0  0
    8.0347  -18.6034   23.6801 H   0  0  0  0  0  0  0  0  0  0  0  0
    4.3092  -18.9291   18.5150 H   0  0  0  0  0  0  0  0  0  0  0  0
    6.3022  -19.6804   23.7414 H   0  0  0  0  0  0  0  0  0  0  0  0
    3.8922  -19.7028   24.3987 H   0  0  0  0  0  0  0  0  0  0  0  0
    2.9468  -17.2059   21.0019 H   0  0  0  0  0  0  0  0  0  0  0  0
    5.3573  -17.1508   20.3667 H   0  0  0  0  0  0  0  0  0  0  0  0
    5.0228  -17.0242   14.7524 H   0  0  0  0  0  0  0  0  0  0  0  0
    5.4006  -17.0538   20.2828 H   0  0  0  0  0  0  0  0  0  0  0  0
    5.4066  -15.6411   17.7821 H   0  0  0  0  0  0  0  0  0  0  0  0
  1  2  2  0
  1 44  1  0
  2  3  1  0
  3  4  1  0
  3 33  2  0
  4  5  2  0
  4  9  1  0
  5  6  1  0
  6  7  2  0
  7  8  1  0
  7 11  1  0
  8  9  2  0
 10 19  1  0
 10 45  1  0
 10 48  2  0
 11 35  1  6
 11 36  1  0
 11 37  1  0
 12 13  2  0
 12 17  1  0
 12 24  1  0
 13 14  1  0
 14 15  2  0
 15 16  1  0
 16 17  2  0
 16 18  1  0
 18 38  1  1
 18 39  1  0
 18 40  1  0
 19 20  2  0
 19 23  1  0
 20 46  1  0
 21 22  1  0
 21 46  2  0
 22 23  2  0
 23 25  1  0
 24 32  1  0
 24 45  1  0
 25 26  2  0
 25 30  1  0
 26 27  1  0
 27 28  2  0
 28 29  1  0
 28 31  1  0
 29 30  2  0
 31 41  1  6
 31 42  1  0
 31 43  1  0
 32 47  1  0
 32 49  2  0
 33 34  1  0
 33 47  1  0
 34 44  2  0
  1 50  1  0
  2 51  1  0
  5 52  1  0
  6 53  1  0
  8 54  1  0
  9 55  1  0
 13 56  1  0
 14 57  1  0
 15 58  1  0
 17 59  1  0
 20 60  1  0
 21 61  1  0
 22 62  1  0
 24 63  1  6
 26 64  1  0
 27 65  1  0
 29 66  1  0
 30 67  1  0
 34 68  1  0
 45 69  1  0
 47 70  1  0
M  END
>  <filename_input>  (24) 
8EAB_VN2_docked.sdf

>  <pdb_id>  (24) 
8EAB_VN2

>  <pose_rank>  (24) 
23

>  <num_atoms_heavy>  (24) 
49

>  <num_torsions>  (24) 
10

>  <pose>  (24) 
[4.620459011138265, -17.87737993639115, 18.43087622846436, 1.0431889797669605, -4.623240943378043, -0.9870586862704512, 5.709165477062681, -1.012491179050791, 1.8869701861444388, -1.9023430077435057, 0.49960748368594754, -1.7776801457524687, 2.9050985099850632, -1.187413460140971, 2.830544789075332, -1.7579394986990449]

>  <energy>  (24) 
-323.5104496561468

>  <inter_energy>  (24) 
-735.8478740802867

>  <intra_energy>  (24) 
405.9068166697355

>  <rmsd>  (24) 
5.65504

>  <sdf_rank>  (24) 
0

$$$$

     RDKit          3D

 70 74  0  0  0  0  0  0  0  0999 V2000
    1.8945  -19.1429   16.4854 C   0  0  0  0  0  0  0  0  0  0  0  0
    1.9129  -19.3021   17.8645 C   0  0  0  0  0  0  0  0  0  0  0  0
    2.6283  -18.3947   18.6420 C   0  0  0  0  0  0  0  0  0  0  0  0
    2.6481  -18.6068   20.0814 C   0  0  0  0  0  0  0  0  0  0  0  0
    3.6938  -19.3219   20.6705 C   0  0  0  0  0  0  0  0  0  0  0  0
    3.7314  -19.5163   22.0507 C   0  0  0  0  0  0  0  0  0  0  0  0
    2.7220  -18.9952   22.8602 C   0  0  0  0  0  0  0  0  0  0  0  0
    1.6794  -18.2769   22.2714 C   0  0  0  0  0  0  0  0  0  0  0  0
    1.6396  -18.0828   20.8908 C   0  0  0  0  0  0  0  0  0  0  0  0
    8.1983  -14.3583   19.2154 C   0  0  0  0  0  0  0  0  0  0  0  0
    2.7608  -19.1864   24.3337 C   0  0  1  0  0  0  0  0  0  0  0  0
    5.1048  -14.0616   19.0087 C   0  0  0  0  0  0  0  0  0  0  0  0
    4.1317  -13.7681   19.9736 C   0  0  0  0  0  0  0  0  0  0  0  0
    3.2972  -12.6565   19.8365 C   0  0  0  0  0  0  0  0  0  0  0  0
    3.4295  -11.8200   18.7270 C   0  0  0  0  0  0  0  0  0  0  0  0
    4.3961  -12.1002   17.7595 C   0  0  0  0  0  0  0  0  0  0  0  0
    5.2229  -13.2152   17.9038 C   0  0  0  0  0  0  0  0  0  0  0  0
    4.5716  -11.2372   16.5636 C   0  0  1  0  0  0  0  0  0  0  0  0
    9.4081  -13.8698   18.5483 C   0  0  0  0  0  0  0  0  0  0  0  0
    9.3871  -12.6502   17.9011 C   0  0  0  0  0  0  0  0  0  0  0  0
   11.5668  -12.9158   17.2187 C   0  0  0  0  0  0  0  0  0  0  0  0
   11.6777  -14.1481   17.8432 C   0  0  0  0  0  0  0  0  0  0  0  0
   10.5709  -14.6396   18.5246 C   0  0  0  0  0  0  0  0  0  0  0  0
    6.0293  -15.2573   19.1276 C   0  0  1  0  0  0  0  0  0  0  0  0
   10.6930  -15.9124   19.2003 C   0  0  0  0  0  0  0  0  0  0  0  0
    9.7410  -16.9134   19.0005 C   0  0  0  0  0  0  0  0  0  0  0  0
    9.8705  -18.1385   19.6571 C   0  0  0  0  0  0  0  0  0  0  0  0
   10.9440  -18.3523   20.5196 C   0  0  0  0  0  0  0  0  0  0  0  0
   11.8929  -17.3511   20.7194 C   0  0  0  0  0  0  0  0  0  0  0  0
   11.7707  -16.1326   20.0559 C   0  0  0  0  0  0  0  0  0  0  0  0
   11.1031  -19.6501   21.2200 C   0  0  1  0  0  0  0  0  0  0  0  0
    5.4235  -16.5224   18.6081 C   0  0  0  0  0  0  0  0  0  0  0  0
    3.3033  -17.3738   17.9688 C   0  0  0  0  0  0  0  0  0  0  0  0
    3.2539  -17.3070   16.5907 C   0  0  0  0  0  0  0  0  0  0  0  0
    3.9920  -19.0208   24.8820 F   0  0  0  0  0  0  0  0  0  0  0  0
    1.9402  -18.2907   24.9575 F   0  0  0  0  0  0  0  0  0  0  0  0
    2.3348  -20.4245   24.7145 F   0  0  0  0  0  0  0  0  0  0  0  0
    4.4988  -11.9166   15.3922 F   0  0  0  0  0  0  0  0  0  0  0  0
    3.6313  -10.2619   16.4848 F   0  0  0  0  0  0  0  0  0  0  0  0
    5.7676  -10.5916   16.5540 F   0  0  0  0  0  0  0  0  0  0  0  0
   12.2508  -19.7377   21.9376 F   0  0  0  0  0  0  0  0  0  0  0  0
   10.0924  -19.8199   22.1130 F   0  0  0  0  0  0  0  0  0  0  0  0
   11.0519  -20.7173   20.3691 F   0  0  0  0  0  0  0  0  0  0  0  0
    2.5594  -18.1685   15.8227 N   0  0  0  0  0  0  0  0  0  0  0  0
    7.3108  -15.0953   18.5025 N   0  0  0  0  0  0  0  0  0  0  0  0
   10.4513  -12.1480   17.2400 N   0  0  0  0  0  0  0  0  0  0  0  0
    4.0480  -16.3662   18.5516 N   0  0  0  0  0  0  0  0  0  0  0  0
    8.0206  -14.0242   20.3729 O   0  0  0  0  0  0  0  0  0  0  0  0
    6.1120  -17.4025   18.1092 O   0  0  0  0  0  0  0  0  0  0  0  0
    1.3010  -19.8550   15.8932 H   0  0  0  0  0  0  0  0  0  0  0  0
    1.3697  -20.1339   18.3368 H   0  0  0  0  0  0  0  0  0  0  0  0
    4.4947  -19.7352   20.0397 H   0  0  0  0  0  0  0  0  0  0  0  0
    4.5595  -20.0823   22.5024 H   0  0  0  0  0  0  0  0  0  0  0  0
    0.8812  -17.8597   22.9029 H   0  0  0  0  0  0  0  0  0  0  0  0
    0.8120  -17.5159   20.4395 H   0  0  0  0  0  0  0  0  0  0  0  0
    4.0236  -14.4224   20.8512 H   0  0  0  0  0  0  0  0  0  0  0  0
    2.5371  -12.4405   20.6017 H   0  0  0  0  0  0  0  0  0  0  0  0
    2.7745  -10.9433   18.6153 H   0  0  0  0  0  0  0  0  0  0  0  0
    5.9796  -13.4309   17.1352 H   0  0  0  0  0  0  0  0  0  0  0  0
    8.4592  -12.0599   17.9255 H   0  0  0  0  0  0  0  0  0  0  0  0
   12.4417  -12.5367   16.6701 H   0  0  0  0  0  0  0  0  0  0  0  0
   12.6158  -14.7211   17.8007 H   0  0  0  0  0  0  0  0  0  0  0  0
    6.1830  -15.3277   20.2145 H   0  0  0  0  0  0  0  0  0  0  0  0
    8.8897  -16.7371   18.3265 H   0  0  0  0  0  0  0  0  0  0  0  0
    9.1272  -18.9328   19.4940 H   0  0  0  0  0  0  0  0  0  0  0  0
   12.7386  -17.5233   21.4014 H   0  0  0  0  0  0  0  0  0  0  0  0
   12.5239  -15.3452   20.2069 H   0  0  0  0  0  0  0  0  0  0  0  0
    3.8146  -16.5034   16.0908 H   0  0  0  0  0  0  0  0  0  0  0  0
    7.5383  -15.5059   17.5857 H   0  0  0  0  0  0  0  0  0  0  0  0
    3.5939  -15.5238   18.9327 H   0  0  0  0  0  0  0  0  0  0  0  0
  1  2  2  0
  1 44  1  0
  2  3  1  0
  3  4  1  0
  3 33  2  0
  4  5  2  0
  4  9  1  0
  5  6  1  0
  6  7  2  0
  7  8  1  0
  7 11  1  0
  8  9  2  0
 10 19  1  0
 10 45  1  0
 10 48  2  0
 11 35  1  1
 11 36  1  0
 11 37  1  0
 12 13  2  0
 12 17  1  0
 12 24  1  0
 13 14  1  0
 14 15  2  0
 15 16  1  0
 16 17  2  0
 16 18  1  0
 18 38  1  6
 18 39  1  0
 18 40  1  0
 19 20  2  0
 19 23  1  0
 20 46  1  0
 21 22  1  0
 21 46  2  0
 22 23  2  0
 23 25  1  0
 24 32  1  0
 24 45  1  0
 25 26  2  0
 25 30  1  0
 26 27  1  0
 27 28  2  0
 28 29  1  0
 28 31  1  0
 29 30  2  0
 31 41  1  1
 31 42  1  0
 31 43  1  0
 32 47  1  0
 32 49  2  0
 33 34  1  0
 33 47  1  0
 34 44  2  0
  1 50  1  0
  2 51  1  0
  5 52  1  0
  6 53  1  0
  8 54  1  0
  9 55  1  0
 13 56  1  0
 14 57  1  0
 15 58  1  0
 17 59  1  0
 20 60  1  0
 21 61  1  0
 22 62  1  0
 24 63  1  1
 26 64  1  0
 27 65  1  0
 29 66  1  0
 30 67  1  0
 34 68  1  0
 45 69  1  0
 47 70  1  0
M  END
>  <filename_input>  (25) 
8EAB_VN2_docked.sdf

>  <pdb_id>  (25) 
8EAB_VN2

>  <pose_rank>  (25) 
24

>  <num_atoms_heavy>  (25) 
49

>  <num_torsions>  (25) 
10

>  <pose>  (25) 
[6.029308767356663, -15.257327887255153, 19.127608177612114, 1.4382334350308048, -3.0667961464167597, 1.113532905476048, 2.693310432558865, -1.8498785270897729, 0.004033566171523784, 2.266546520824124, -1.2345255131386033, -2.3511382762507913, 1.4052415088148609, 2.907040917363034, 2.4651109534305697, 1.7402444227808338]

>  <energy>  (25) 
-677.8052022791351

>  <inter_energy>  (25) 
-731.2942432509417

>  <intra_energy>  (25) 
63.09530016225824

>  <rmsd>  (25) 
9.01373

>  <sdf_rank>  (25) 
0

$$$$

     RDKit          3D

 70 74  0  0  0  0  0  0  0  0999 V2000
   13.2430  -19.3310   21.2220 C   0  0  0  0  0  0  0  0  0  0  0  0
   12.8380  -18.1320   20.6510 C   0  0  0  0  0  0  0  0  0  0  0  0
   11.4860  -17.9310   20.3840 C   0  0  0  0  0  0  0  0  0  0  0  0
   11.1000  -16.6740   19.7610 C   0  0  0  0  0  0  0  0  0  0  0  0
   11.5950  -15.4650   20.2560 C   0  0  0  0  0  0  0  0  0  0  0  0
   11.2450  -14.2560   19.6560 C   0  0  0  0  0  0  0  0  0  0  0  0
   10.3950  -14.2420   18.5500 C   0  0  0  0  0  0  0  0  0  0  0  0
    9.9040  -15.4510   18.0530 C   0  0  0  0  0  0  0  0  0  0  0  0
   10.2520  -16.6610   18.6530 C   0  0  0  0  0  0  0  0  0  0  0  0
    5.0420  -18.9290   21.7990 C   0  0  0  0  0  0  0  0  0  0  0  0
   10.0270  -12.9590   17.8960 C   0  0  1  0  0  0  0  0  0  0  0  0
    6.6900  -16.9900   20.0070 C   0  0  0  0  0  0  0  0  0  0  0  0
    6.5770  -15.6860   20.5080 C   0  0  0  0  0  0  0  0  0  0  0  0
    6.2300  -14.6230   19.6710 C   0  0  0  0  0  0  0  0  0  0  0  0
    5.9930  -14.8540   18.3150 C   0  0  0  0  0  0  0  0  0  0  0  0
    6.1040  -16.1480   17.8030 C   0  0  0  0  0  0  0  0  0  0  0  0
    6.4480  -17.2040   18.6480 C   0  0  0  0  0  0  0  0  0  0  0  0
    5.8610  -16.4390   16.3670 C   0  0  1  0  0  0  0  0  0  0  0  0
    4.0050  -18.8760   22.8330 C   0  0  0  0  0  0  0  0  0  0  0  0
    4.3490  -19.0640   24.1570 C   0  0  0  0  0  0  0  0  0  0  0  0
    2.1520  -18.8760   24.8090 C   0  0  0  0  0  0  0  0  0  0  0  0
    1.7180  -18.6760   23.5080 C   0  0  0  0  0  0  0  0  0  0  0  0
    2.6670  -18.6770   22.4930 C   0  0  0  0  0  0  0  0  0  0  0  0
    7.0680  -18.1660   20.8860 C   0  0  1  0  0  0  0  0  0  0  0  0
    2.2200  -18.4410   21.1380 C   0  0  0  0  0  0  0  0  0  0  0  0
    1.2800  -19.2860   20.5460 C   0  0  0  0  0  0  0  0  0  0  0  0
    0.8550  -19.0470   19.2380 C   0  0  0  0  0  0  0  0  0  0  0  0
    1.3810  -17.9720   18.5240 C   0  0  0  0  0  0  0  0  0  0  0  0
    2.3210  -17.1300   19.1160 C   0  0  0  0  0  0  0  0  0  0  0  0
    2.7370  -17.3610   20.4250 C   0  0  0  0  0  0  0  0  0  0  0  0
    0.9360  -17.6970   17.1360 C   0  0  1  0  0  0  0  0  0  0  0  0
    8.4920  -18.1250   21.3420 C   0  0  0  0  0  0  0  0  0  0  0  0
   10.6130  -18.9740   20.7020 C   0  0  0  0  0  0  0  0  0  0  0  0
   11.1060  -20.1450   21.2420 C   0  0  0  0  0  0  0  0  0  0  0  0
    9.4350  -12.0630   18.7270 F   0  0  0  0  0  0  0  0  0  0  0  0
   11.1350  -12.3400   17.3920 F   0  0  0  0  0  0  0  0  0  0  0  0
    9.1740  -13.1300   16.8460 F   0  0  0  0  0  0  0  0  0  0  0  0
    5.1440  -15.4770   15.7350 F   0  0  0  0  0  0  0  0  0  0  0  0
    7.0130  -16.5660   15.6610 F   0  0  0  0  0  0  0  0  0  0  0  0
    5.1860  -17.6030   16.1750 F   0  0  0  0  0  0  0  0  0  0  0  0
    0.9810  -18.7870   16.3300 F   0  0  0  0  0  0  0  0  0  0  0  0
   -0.3610  -17.2900   17.1390 F   0  0  0  0  0  0  0  0  0  0  0  0
    1.6540  -16.6990   16.5410 F   0  0  0  0  0  0  0  0  0  0  0  0
   12.4080  -20.3540   21.5170 N   0  0  0  0  0  0  0  0  0  0  0  0
    6.2410  -18.3450   22.0450 N   0  0  0  0  0  0  0  0  0  0  0  0
    3.4470  -19.0590   25.1610 N   0  0  0  0  0  0  0  0  0  0  0  0
    9.2410  -18.9680   20.5370 N   0  0  0  0  0  0  0  0  0  0  0  0
    4.7510  -19.4490   20.7370 O   0  0  0  0  0  0  0  0  0  0  0  0
    8.8850  -17.2790   22.1340 O   0  0  0  0  0  0  0  0  0  0  0  0
   14.3118  -19.4574   21.4493 H   0  0  0  0  0  0  0  0  0  0  0  0
   13.5752  -17.3512   20.4126 H   0  0  0  0  0  0  0  0  0  0  0  0
   12.2669  -15.4669   21.1269 H   0  0  0  0  0  0  0  0  0  0  0  0
   11.6403  -13.3106   20.0559 H   0  0  0  0  0  0  0  0  0  0  0  0
    9.2358  -15.4491   17.1792 H   0  0  0  0  0  0  0  0  0  0  0  0
    9.8574  -17.6063   18.2522 H   0  0  0  0  0  0  0  0  0  0  0  0
    6.7642  -15.4970   21.5754 H   0  0  0  0  0  0  0  0  0  0  0  0
    6.1436  -13.6054   20.0798 H   0  0  0  0  0  0  0  0  0  0  0  0
    5.7198  -14.0196   17.6523 H   0  0  0  0  0  0  0  0  0  0  0  0
    6.5299  -18.2212   18.2373 H   0  0  0  0  0  0  0  0  0  0  0  0
    5.4084  -19.2255   24.4052 H   0  0  0  0  0  0  0  0  0  0  0  0
    1.3956  -18.8868   25.6075 H   0  0  0  0  0  0  0  0  0  0  0  0
    0.6520  -18.5208   23.2852 H   0  0  0  0  0  0  0  0  0  0  0  0
    6.9085  -19.0220   20.2138 H   0  0  0  0  0  0  0  0  0  0  0  0
    0.8746  -20.1393   21.1095 H   0  0  0  0  0  0  0  0  0  0  0  0
    0.1070  -19.7054   18.7722 H   0  0  0  0  0  0  0  0  0  0  0  0
    2.7344  -16.2828   18.5491 H   0  0  0  0  0  0  0  0  0  0  0  0
    3.4726  -16.6919   20.8954 H   0  0  0  0  0  0  0  0  0  0  0  0
   10.3941  -20.9546   21.4604 H   0  0  0  0  0  0  0  0  0  0  0  0
    6.5345  -18.0533   22.9882 H   0  0  0  0  0  0  0  0  0  0  0  0
    8.7886  -19.5723   19.8363 H   0  0  0  0  0  0  0  0  0  0  0  0
  1  2  2  0
  1 44  1  0
  2  3  1  0
  3  4  1  0
  3 33  2  0
  4  5  2  0
  4  9  1  0
  5  6  1  0
  6  7  2  0
  7  8  1  0
  7 11  1  0
  8  9  2  0
 10 19  1  0
 10 45  1  0
 10 48  2  0
 11 35  1  1
 11 36  1  0
 11 37  1  0
 12 13  2  0
 12 17  1  0
 12 24  1  0
 13 14  1  0
 14 15  2  0
 15 16  1  0
 16 17  2  0
 16 18  1  0
 18 38  1  6
 18 39  1  0
 18 40  1  0
 19 20  2  0
 19 23  1  0
 20 46  1  0
 21 22  1  0
 21 46  2  0
 22 23  2  0
 23 25  1  0
 24 32  1  0
 24 45  1  0
 25 26  2  0
 25 30  1  0
 26 27  1  0
 27 28  2  0
 28 29  1  0
 28 31  1  0
 29 30  2  0
 31 41  1  6
 31 42  1  0
 31 43  1  0
 32 47  1  0
 32 49  2  0
 33 34  1  0
 33 47  1  0
 34 44  2  0
  1 50  1  0
  2 51  1  0
  5 52  1  0
  6 53  1  0
  8 54  1  0
  9 55  1  0
 13 56  1  0
 14 57  1  0
 15 58  1  0
 17 59  1  0
 20 60  1  0
 21 61  1  0
 22 62  1  0
 24 63  1  6
 26 64  1  0
 27 65  1  0
 29 66  1  0
 30 67  1  0
 34 68  1  0
 45 69  1  0
 47 70  1  0
M  END
>  <filename_input>  (26) 
8EAB_VN2_docked.sdf

>  <pdb_id>  (26) 
8EAB_VN2

>  <pose_rank>  (26) 
25

>  <num_atoms_heavy>  (26) 
49

>  <num_torsions>  (26) 
10

>  <pose>  (26) 
[7.068, -18.166, 20.886, 1e-06, 1e-06, 1e-06, 0.0, 0.0, 0.0, 0.0, 0.0, 0.0, 0.0, 0.0, 0.0, 0.0]

>  <energy>  (26) 
-1082.3077865160187

>  <inter_energy>  (26) 
-1157.6529414731924

>  <intra_energy>  (26) 
82.97150099825959

>  <rmsd>  (26) 
0.0

>  <sdf_rank>  (26) 
0

$$$$
