
     RDKit          3D

 38 41  0  0  0  0  0  0  0  0999 V2000
   13.9942   13.9299   24.6580 C   0  0  0  0  0  0  0  0  0  0  0  0
   14.0119   14.6208   23.4477 C   0  0  0  0  0  0  0  0  0  0  0  0
   15.2348   14.8349   22.7657 C   0  0  0  0  0  0  0  0  0  0  0  0
   16.4863   14.3737   23.2498 C   0  0  0  0  0  0  0  0  0  0  0  0
   16.4099   13.6356   24.4752 C   0  0  0  0  0  0  0  0  0  0  0  0
   15.2076   13.4343   25.1691 C   0  0  0  0  0  0  0  0  0  0  0  0
   17.8235   14.5385   22.5122 C   0  0  0  0  0  0  0  0  0  0  0  0
   18.0670   15.5923   21.6166 C   0  0  0  0  0  0  0  0  0  0  0  0
   19.2951   15.7537   20.9102 C   0  0  0  0  0  0  0  0  0  0  0  0
   19.9743   13.6918   22.0522 C   0  0  0  0  0  0  0  0  0  0  0  0
   21.1914   12.8501   22.0647 C   0  0  0  0  0  0  0  0  0  0  0  0
   22.0405   13.4765   21.1946 C   0  0  0  0  0  0  0  0  0  0  0  0
   23.4386   13.0705   20.7474 C   0  0  2  0  0  0  0  0  0  0  0  0
   21.4113   11.6624   22.8869 C   0  0  0  0  0  0  0  0  0  0  0  0
   21.2196   11.7463   24.3011 C   0  0  0  0  0  0  0  0  0  0  0  0
   21.4239   10.6427   25.1631 C   0  0  0  0  0  0  0  0  0  0  0  0
   21.8390    9.4122   24.6281 C   0  0  0  0  0  0  0  0  0  0  0  0
   22.0859    9.3172   23.2342 C   0  0  0  0  0  0  0  0  0  0  0  0
   21.8760   10.4276   22.3815 C   0  0  0  0  0  0  0  0  0  0  0  0
   24.2139   12.9334   21.8274 F   0  0  0  0  0  0  0  0  0  0  0  0
   23.9484   14.0021   19.9330 F   0  0  0  0  0  0  0  0  0  0  0  0
   23.4304   11.8908   20.0545 F   0  0  0  0  0  0  0  0  0  0  0  0
   20.2407   14.7271   21.1444 N   0  0  0  0  0  0  0  0  0  0  0  0
   18.8096   13.5850   22.6974 N   0  0  0  0  0  0  0  0  0  0  0  0
   21.5131   14.5926   20.6431 N   0  0  0  0  0  0  0  0  0  0  0  0
   19.6506   16.6187   20.1078 O   0  0  0  0  0  0  0  0  0  0  0  0
   13.0510   13.7754   25.2025 H   0  0  0  0  0  0  0  0  0  0  0  0
   13.0724   15.0013   23.0204 H   0  0  0  0  0  0  0  0  0  0  0  0
   15.2132   15.3859   21.8139 H   0  0  0  0  0  0  0  0  0  0  0  0
   17.3345   13.2079   24.8901 H   0  0  0  0  0  0  0  0  0  0  0  0
   15.2136   12.8839   26.1214 H   0  0  0  0  0  0  0  0  0  0  0  0
   17.2842   15.5205   20.8472 H   0  0  0  0  0  0  0  0  0  0  0  0
   18.0963   16.4538   22.2999 H   0  0  0  0  0  0  0  0  0  0  0  0
   20.9011   12.7053   24.7358 H   0  0  0  0  0  0  0  0  0  0  0  0
   21.2586   10.7479   26.2455 H   0  0  0  0  0  0  0  0  0  0  0  0
   21.9706    8.5358   25.2797 H   0  0  0  0  0  0  0  0  0  0  0  0
   22.4453    8.3679   22.8103 H   0  0  0  0  0  0  0  0  0  0  0  0
   22.0785   10.3271   21.3050 H   0  0  0  0  0  0  0  0  0  0  0  0
  1  2  2  0
  1  6  1  0
  2  3  1  0
  3  4  2  0
  4  5  1  0
  4  7  1  0
  5  6  2  0
  7  8  1  0
  7 24  2  0
  8  9  1  0
  9 23  1  0
  9 26  2  0
 10 11  2  0
 10 23  1  0
 10 24  1  0
 11 12  1  0
 11 14  1  0
 12 13  1  0
 12 25  2  0
 13 20  1  1
 13 21  1  0
 13 22  1  0
 14 15  2  0
 14 19  1  0
 15 16  1  0
 16 17  2  0
 17 18  1  0
 18 19  2  0
 23 25  1  0
  1 27  1  0
  2 28  1  0
  3 29  1  0
  5 30  1  0
  6 31  1  0
  8 32  1  0
  8 33  1  0
 15 34  1  0
 16 35  1  0
 17 36  1  0
 18 37  1  0
 19 38  1  0
M  END
>  <filename_input>  (1) 
8EX2_Q2Q_docked.sdf

>  <pdb_id>  (1) 
8EX2_Q2Q

>  <pose_rank>  (1) 
0

>  <num_atoms_heavy>  (1) 
26

>  <num_torsions>  (1) 
3

>  <pose>  (1) 
[17.82353588142574, 14.53850910271532, 22.512202810619947, 3.871939896646223, 1.0031292802378606, -4.777091375757908, 0.12341490862023588, -0.15268492058081368, -0.16341996802002692]

>  <energy>  (1) 
-1149.4414453248103

>  <inter_energy>  (1) 
-1134.4841940623062

>  <intra_energy>  (1) 
7.6986211732667025

>  <rmsd>  (1) 
0.244985

>  <sdf_rank>  (1) 
0

$$$$

     RDKit          3D

 38 41  0  0  0  0  0  0  0  0999 V2000
   13.9897   14.0535   24.6676 C   0  0  0  0  0  0  0  0  0  0  0  0
   14.0197   14.7363   23.4530 C   0  0  0  0  0  0  0  0  0  0  0  0
   15.2465   14.9258   22.7706 C   0  0  0  0  0  0  0  0  0  0  0  0
   16.4898   14.4469   23.2585 C   0  0  0  0  0  0  0  0  0  0  0  0
   16.4003   13.7178   24.4884 C   0  0  0  0  0  0  0  0  0  0  0  0
   15.1944   13.5409   25.1826 C   0  0  0  0  0  0  0  0  0  0  0  0
   17.8301   14.5848   22.5209 C   0  0  0  0  0  0  0  0  0  0  0  0
   18.1075   15.6525   21.6521 C   0  0  0  0  0  0  0  0  0  0  0  0
   19.3386   15.7899   20.9459 C   0  0  0  0  0  0  0  0  0  0  0  0
   19.9493   13.6770   22.0319 C   0  0  0  0  0  0  0  0  0  0  0  0
   21.1367   12.7939   22.0185 C   0  0  0  0  0  0  0  0  0  0  0  0
   22.0047   13.4132   21.1620 C   0  0  0  0  0  0  0  0  0  0  0  0
   23.3870   12.9712   20.6997 C   0  0  2  0  0  0  0  0  0  0  0  0
   21.3176   11.5784   22.8089 C   0  0  0  0  0  0  0  0  0  0  0  0
   21.1773   10.3051   22.1744 C   0  0  0  0  0  0  0  0  0  0  0  0
   21.3267    9.0851   22.8760 C   0  0  0  0  0  0  0  0  0  0  0  0
   21.6156    9.1062   24.2503 C   0  0  0  0  0  0  0  0  0  0  0  0
   21.7088   10.3569   24.9139 C   0  0  0  0  0  0  0  0  0  0  0  0
   21.5595   11.5708   24.2009 C   0  0  0  0  0  0  0  0  0  0  0  0
   23.9793   13.9929   20.0740 F   0  0  0  0  0  0  0  0  0  0  0  0
   23.2810   11.9259   19.8709 F   0  0  0  0  0  0  0  0  0  0  0  0
   24.1734   12.5765   21.7473 F   0  0  0  0  0  0  0  0  0  0  0  0
   20.2489   14.7257   21.1503 N   0  0  0  0  0  0  0  0  0  0  0  0
   18.7832   13.5935   22.6780 N   0  0  0  0  0  0  0  0  0  0  0  0
   21.5147   14.5607   20.6414 N   0  0  0  0  0  0  0  0  0  0  0  0
   19.7216   16.6628   20.1650 O   0  0  0  0  0  0  0  0  0  0  0  0
   13.0437   13.9181   25.2122 H   0  0  0  0  0  0  0  0  0  0  0  0
   13.0870   15.1297   23.0225 H   0  0  0  0  0  0  0  0  0  0  0  0
   15.2347   15.4711   21.8154 H   0  0  0  0  0  0  0  0  0  0  0  0
   17.3174   13.2774   24.9067 H   0  0  0  0  0  0  0  0  0  0  0  0
   15.1906   12.9965   26.1384 H   0  0  0  0  0  0  0  0  0  0  0  0
   17.3207   15.6277   20.8837 H   0  0  0  0  0  0  0  0  0  0  0  0
   18.1680   16.4945   22.3573 H   0  0  0  0  0  0  0  0  0  0  0  0
   20.9442   10.2723   21.0999 H   0  0  0  0  0  0  0  0  0  0  0  0
   21.2171    8.1262   22.3483 H   0  0  0  0  0  0  0  0  0  0  0  0
   21.7674    8.1677   24.8037 H   0  0  0  0  0  0  0  0  0  0  0  0
   21.8996   10.3837   25.9969 H   0  0  0  0  0  0  0  0  0  0  0  0
   21.6332   12.5263   24.7410 H   0  0  0  0  0  0  0  0  0  0  0  0
  1  2  2  0
  1  6  1  0
  2  3  1  0
  3  4  2  0
  4  5  1  0
  4  7  1  0
  5  6  2  0
  7  8  1  0
  7 24  2  0
  8  9  1  0
  9 23  1  0
  9 26  2  0
 10 11  2  0
 10 23  1  0
 10 24  1  0
 11 12  1  0
 11 14  1  0
 12 13  1  0
 12 25  2  0
 13 20  1  6
 13 21  1  0
 13 22  1  0
 14 15  2  0
 14 19  1  0
 15 16  1  0
 16 17  2  0
 17 18  1  0
 18 19  2  0
 23 25  1  0
  1 27  1  0
  2 28  1  0
  3 29  1  0
  5 30  1  0
  6 31  1  0
  8 32  1  0
  8 33  1  0
 15 34  1  0
 16 35  1  0
 17 36  1  0
 18 37  1  0
 19 38  1  0
M  END
>  <filename_input>  (2) 
8EX2_Q2Q_docked.sdf

>  <pdb_id>  (2) 
8EX2_Q2Q

>  <pose_rank>  (2) 
1

>  <num_atoms_heavy>  (2) 
26

>  <num_torsions>  (2) 
3

>  <pose>  (2) 
[17.830083435052376, 14.584774269388348, 22.52090623929646, 4.056508899131157, 3.2462075809724844, -3.5144536565901316, 0.16037166726602217, 2.5831925205316715, 4.167611787228327]

>  <energy>  (2) 
-1120.4605872593643

>  <inter_energy>  (2) 
-1102.079607802393

>  <intra_energy>  (2) 
1.167817108519048

>  <rmsd>  (2) 
0.293964

>  <sdf_rank>  (2) 
0

$$$$

     RDKit          3D

 38 41  0  0  0  0  0  0  0  0999 V2000
   13.9181   14.2305   24.7178 C   0  0  0  0  0  0  0  0  0  0  0  0
   15.0150   13.4895   25.1539 C   0  0  0  0  0  0  0  0  0  0  0  0
   16.2485   13.5652   24.4616 C   0  0  0  0  0  0  0  0  0  0  0  0
   16.4481   14.3764   23.3147 C   0  0  0  0  0  0  0  0  0  0  0  0
   15.3038   15.1482   22.9308 C   0  0  0  0  0  0  0  0  0  0  0  0
   14.0721   15.0664   23.5967 C   0  0  0  0  0  0  0  0  0  0  0  0
   17.7840   14.5264   22.5716 C   0  0  0  0  0  0  0  0  0  0  0  0
   18.0299   15.5685   21.6632 C   0  0  0  0  0  0  0  0  0  0  0  0
   19.2567   15.7160   20.9516 C   0  0  0  0  0  0  0  0  0  0  0  0
   19.9296   13.6645   22.1157 C   0  0  0  0  0  0  0  0  0  0  0  0
   21.1428   12.8173   22.1348 C   0  0  0  0  0  0  0  0  0  0  0  0
   21.9924   13.4296   21.2551 C   0  0  0  0  0  0  0  0  0  0  0  0
   23.3874   13.0120   20.8088 C   0  0  2  0  0  0  0  0  0  0  0  0
   21.3595   11.6383   22.9701 C   0  0  0  0  0  0  0  0  0  0  0  0
   21.3287   11.7748   24.3928 C   0  0  0  0  0  0  0  0  0  0  0  0
   21.5407   10.6818   25.2665 C   0  0  0  0  0  0  0  0  0  0  0  0
   21.8010    9.4085   24.7340 C   0  0  0  0  0  0  0  0  0  0  0  0
   21.8879    9.2571   23.3259 C   0  0  0  0  0  0  0  0  0  0  0  0
   21.6719   10.3575   22.4619 C   0  0  0  0  0  0  0  0  0  0  0  0
   23.2993   11.8558   20.1443 F   0  0  0  0  0  0  0  0  0  0  0  0
   24.1859   12.8688   21.8732 F   0  0  0  0  0  0  0  0  0  0  0  0
   23.9647   13.9484   19.9953 F   0  0  0  0  0  0  0  0  0  0  0  0
   20.1982   14.6879   21.1952 N   0  0  0  0  0  0  0  0  0  0  0  0
   18.7662   13.5706   22.7652 N   0  0  0  0  0  0  0  0  0  0  0  0
   21.4686   14.5417   20.6921 N   0  0  0  0  0  0  0  0  0  0  0  0
   19.6140   16.5701   20.1382 O   0  0  0  0  0  0  0  0  0  0  0  0
   12.9520   14.1632   25.2393 H   0  0  0  0  0  0  0  0  0  0  0  0
   14.9225   12.8433   26.0392 H   0  0  0  0  0  0  0  0  0  0  0  0
   17.0933   12.9656   24.8313 H   0  0  0  0  0  0  0  0  0  0  0  0
   15.3952   15.8350   22.0764 H   0  0  0  0  0  0  0  0  0  0  0  0
   13.2187   15.6613   23.2392 H   0  0  0  0  0  0  0  0  0  0  0  0
   17.2446   15.4915   20.8968 H   0  0  0  0  0  0  0  0  0  0  0  0
   18.0650   16.4378   22.3363 H   0  0  0  0  0  0  0  0  0  0  0  0
   21.1328   12.7672   24.8249 H   0  0  0  0  0  0  0  0  0  0  0  0
   21.5018   10.8286   26.3560 H   0  0  0  0  0  0  0  0  0  0  0  0
   21.9354    8.5421   25.3982 H   0  0  0  0  0  0  0  0  0  0  0  0
   22.1263    8.2714   22.8999 H   0  0  0  0  0  0  0  0  0  0  0  0
   21.7487   10.2127   21.3742 H   0  0  0  0  0  0  0  0  0  0  0  0
  1  2  2  0
  1  6  1  0
  2  3  1  0
  3  4  2  0
  4  5  1  0
  4  7  1  0
  5  6  2  0
  7  8  1  0
  7 24  2  0
  8  9  1  0
  9 23  1  0
  9 26  2  0
 10 11  2  0
 10 23  1  0
 10 24  1  0
 11 12  1  0
 11 14  1  0
 12 13  1  0
 12 25  2  0
 13 20  1  6
 13 21  1  0
 13 22  1  0
 14 15  2  0
 14 19  1  0
 15 16  1  0
 16 17  2  0
 17 18  1  0
 18 19  2  0
 23 25  1  0
  1 27  1  0
  2 28  1  0
  3 29  1  0
  5 30  1  0
  6 31  1  0
  8 32  1  0
  8 33  1  0
 15 34  1  0
 16 35  1  0
 17 36  1  0
 18 37  1  0
 19 38  1  0
M  END
>  <filename_input>  (3) 
8EX2_Q2Q_docked.sdf

>  <pdb_id>  (3) 
8EX2_Q2Q

>  <pose_rank>  (3) 
2

>  <num_atoms_heavy>  (3) 
26

>  <num_torsions>  (3) 
3

>  <pose>  (3) 
[17.78402614386222, 14.526422915505293, 22.571636825371854, 4.817811441429234, 0.5909699558064765, -3.898809798364342, -3.2167732419434665, -0.2816575253113333, 1.9478637391980809]

>  <energy>  (3) 
-1112.0446307532593

>  <inter_energy>  (3) 
-1093.9100043990445

>  <intra_energy>  (3) 
4.174383203529025

>  <rmsd>  (3) 
0.283437

>  <sdf_rank>  (3) 
0

$$$$

     RDKit          3D

 38 41  0  0  0  0  0  0  0  0999 V2000
   14.0374   13.9627   24.7929 C   0  0  0  0  0  0  0  0  0  0  0  0
   15.2645   13.7945   25.4320 C   0  0  0  0  0  0  0  0  0  0  0  0
   16.4729   13.9481   24.7091 C   0  0  0  0  0  0  0  0  0  0  0  0
   16.5174   14.2761   23.3294 C   0  0  0  0  0  0  0  0  0  0  0  0
   15.2326   14.4778   22.7285 C   0  0  0  0  0  0  0  0  0  0  0  0
   14.0294   14.3092   23.4295 C   0  0  0  0  0  0  0  0  0  0  0  0
   17.8066   14.5048   22.5262 C   0  0  0  0  0  0  0  0  0  0  0  0
   17.9696   15.5926   21.6534 C   0  0  0  0  0  0  0  0  0  0  0  0
   19.1516   15.8136   20.8871 C   0  0  0  0  0  0  0  0  0  0  0  0
   19.9525   13.7395   21.9231 C   0  0  0  0  0  0  0  0  0  0  0  0
   21.1924   12.9357   21.8424 C   0  0  0  0  0  0  0  0  0  0  0  0
   21.9737   13.6146   20.9484 C   0  0  0  0  0  0  0  0  0  0  0  0
   23.3563   13.2660   20.4131 C   0  0  2  0  0  0  0  0  0  0  0  0
   21.4919   11.7306   22.6125 C   0  0  0  0  0  0  0  0  0  0  0  0
   21.7506   10.5063   21.9214 C   0  0  0  0  0  0  0  0  0  0  0  0
   22.0367    9.2967   22.5982 C   0  0  0  0  0  0  0  0  0  0  0  0
   22.0634    9.2771   24.0023 C   0  0  0  0  0  0  0  0  0  0  0  0
   21.7591   10.4674   24.7122 C   0  0  0  0  0  0  0  0  0  0  0  0
   21.4766   11.6719   24.0241 C   0  0  0  0  0  0  0  0  0  0  0  0
   23.2293   12.3283   19.4692 F   0  0  0  0  0  0  0  0  0  0  0  0
   24.1321   12.8144   21.4057 F   0  0  0  0  0  0  0  0  0  0  0  0
   23.9847   14.3554   19.8746 F   0  0  0  0  0  0  0  0  0  0  0  0
   20.1382   14.8099   21.0363 N   0  0  0  0  0  0  0  0  0  0  0  0
   18.8287   13.5769   22.6267 N   0  0  0  0  0  0  0  0  0  0  0  0
   21.3844   14.7304   20.4628 N   0  0  0  0  0  0  0  0  0  0  0  0
   19.4369   16.7135   20.0952 O   0  0  0  0  0  0  0  0  0  0  0  0
   13.0946   13.8274   25.3433 H   0  0  0  0  0  0  0  0  0  0  0  0
   15.2947   13.5414   26.5021 H   0  0  0  0  0  0  0  0  0  0  0  0
   17.4237   13.8062   25.2437 H   0  0  0  0  0  0  0  0  0  0  0  0
   15.1878   14.7780   21.6712 H   0  0  0  0  0  0  0  0  0  0  0  0
   13.0709   14.4492   22.9083 H   0  0  0  0  0  0  0  0  0  0  0  0
   17.1479   15.5205   20.9256 H   0  0  0  0  0  0  0  0  0  0  0  0
   18.0113   16.4332   22.3617 H   0  0  0  0  0  0  0  0  0  0  0  0
   21.7265   10.5042   20.8217 H   0  0  0  0  0  0  0  0  0  0  0  0
   22.2368    8.3775   22.0281 H   0  0  0  0  0  0  0  0  0  0  0  0
   22.3162    8.3533   24.5433 H   0  0  0  0  0  0  0  0  0  0  0  0
   21.7426   10.4541   25.8120 H   0  0  0  0  0  0  0  0  0  0  0  0
   21.2406   12.5793   24.5993 H   0  0  0  0  0  0  0  0  0  0  0  0
  1  2  2  0
  1  6  1  0
  2  3  1  0
  3  4  2  0
  4  5  1  0
  4  7  1  0
  5  6  2  0
  7  8  1  0
  7 24  2  0
  8  9  1  0
  9 23  1  0
  9 26  2  0
 10 11  2  0
 10 23  1  0
 10 24  1  0
 11 12  1  0
 11 14  1  0
 12 13  1  0
 12 25  2  0
 13 20  1  6
 13 21  1  0
 13 22  1  0
 14 15  2  0
 14 19  1  0
 15 16  1  0
 16 17  2  0
 17 18  1  0
 18 19  2  0
 23 25  1  0
  1 27  1  0
  2 28  1  0
  3 29  1  0
  5 30  1  0
  6 31  1  0
  8 32  1  0
  8 33  1  0
 15 34  1  0
 16 35  1  0
 17 36  1  0
 18 37  1  0
 19 38  1  0
M  END
>  <filename_input>  (4) 
8EX2_Q2Q_docked.sdf

>  <pdb_id>  (4) 
8EX2_Q2Q

>  <pose_rank>  (4) 
3

>  <num_atoms_heavy>  (4) 
26

>  <num_torsions>  (4) 
3

>  <pose>  (4) 
[17.80661208012172, 14.504753368261394, 22.526196632682762, -0.010890468238177771, -3.314394411852786, -5.2384577948586015, -2.6950908953976414, 2.869973992714256, 2.1900047676575602]

>  <energy>  (4) 
-1098.213155857018

>  <inter_energy>  (4) 
-1090.8889035558495

>  <intra_energy>  (4) 
5.637600205195265

>  <rmsd>  (4) 
0.427274

>  <sdf_rank>  (4) 
0

$$$$

     RDKit          3D

 38 41  0  0  0  0  0  0  0  0999 V2000
   14.2244   11.7127   25.8177 C   0  0  0  0  0  0  0  0  0  0  0  0
   14.1917   12.9651   25.2072 C   0  0  0  0  0  0  0  0  0  0  0  0
   15.3106   13.4315   24.4744 C   0  0  0  0  0  0  0  0  0  0  0  0
   16.5032   12.6797   24.3135 C   0  0  0  0  0  0  0  0  0  0  0  0
   16.4719   11.3846   24.9250 C   0  0  0  0  0  0  0  0  0  0  0  0
   15.3774   10.9203   25.6693 C   0  0  0  0  0  0  0  0  0  0  0  0
   17.7140   13.1283   23.4815 C   0  0  0  0  0  0  0  0  0  0  0  0
   17.7448   14.3509   22.7915 C   0  0  0  0  0  0  0  0  0  0  0  0
   18.8521   14.7780   22.0012 C   0  0  0  0  0  0  0  0  0  0  0  0
   19.8543   12.6294   22.6304 C   0  0  0  0  0  0  0  0  0  0  0  0
   21.1330   11.9424   22.3426 C   0  0  0  0  0  0  0  0  0  0  0  0
   21.8034   12.8113   21.5264 C   0  0  0  0  0  0  0  0  0  0  0  0
   23.1628   12.6556   20.8574 C   0  0  2  0  0  0  0  0  0  0  0  0
   21.5623   10.6549   22.8838 C   0  0  0  0  0  0  0  0  0  0  0  0
   21.3121   10.3569   24.2594 C   0  0  0  0  0  0  0  0  0  0  0  0
   21.7078    9.1368   24.8575 C   0  0  0  0  0  0  0  0  0  0  0  0
   22.3805    8.1734   24.0881 C   0  0  0  0  0  0  0  0  0  0  0  0
   22.6864    8.4664   22.7340 C   0  0  0  0  0  0  0  0  0  0  0  0
   22.2835    9.6896   22.1462 C   0  0  0  0  0  0  0  0  0  0  0  0
   23.5519   13.8456   20.3897 F   0  0  0  0  0  0  0  0  0  0  0  0
   23.0820   11.7734   19.8543 F   0  0  0  0  0  0  0  0  0  0  0  0
   24.1098   12.1899   21.7282 F   0  0  0  0  0  0  0  0  0  0  0  0
   19.9078   13.8388   21.9223 N   0  0  0  0  0  0  0  0  0  0  0  0
   18.7968   12.2741   23.3650 N   0  0  0  0  0  0  0  0  0  0  0  0
   21.1118   13.9440   21.2683 N   0  0  0  0  0  0  0  0  0  0  0  0
   19.0224   15.8117   21.3523 O   0  0  0  0  0  0  0  0  0  0  0  0
   13.3664   11.3512   26.4035 H   0  0  0  0  0  0  0  0  0  0  0  0
   13.2934   13.5939   25.2947 H   0  0  0  0  0  0  0  0  0  0  0  0
   15.2522   14.4256   24.0070 H   0  0  0  0  0  0  0  0  0  0  0  0
   17.3443   10.7253   24.8057 H   0  0  0  0  0  0  0  0  0  0  0  0
   15.4209    9.9277   26.1413 H   0  0  0  0  0  0  0  0  0  0  0  0
   16.8788   14.3359   22.1135 H   0  0  0  0  0  0  0  0  0  0  0  0
   17.7850   15.0679   23.6247 H   0  0  0  0  0  0  0  0  0  0  0  0
   20.7922   11.1044   24.8766 H   0  0  0  0  0  0  0  0  0  0  0  0
   21.4898    8.9442   25.9183 H   0  0  0  0  0  0  0  0  0  0  0  0
   22.6659    7.2066   24.5286 H   0  0  0  0  0  0  0  0  0  0  0  0
   23.2441    7.7332   22.1328 H   0  0  0  0  0  0  0  0  0  0  0  0
   22.5368    9.8924   21.0951 H   0  0  0  0  0  0  0  0  0  0  0  0
  1  2  2  0
  1  6  1  0
  2  3  1  0
  3  4  2  0
  4  5  1  0
  4  7  1  0
  5  6  2  0
  7  8  1  0
  7 24  2  0
  8  9  1  0
  9 23  1  0
  9 26  2  0
 10 11  2  0
 10 23  1  0
 10 24  1  0
 11 12  1  0
 11 14  1  0
 12 13  1  0
 12 25  2  0
 13 20  1  6
 13 21  1  0
 13 22  1  0
 14 15  2  0
 14 19  1  0
 15 16  1  0
 16 17  2  0
 17 18  1  0
 18 19  2  0
 23 25  1  0
  1 27  1  0
  2 28  1  0
  3 29  1  0
  5 30  1  0
  6 31  1  0
  8 32  1  0
  8 33  1  0
 15 34  1  0
 16 35  1  0
 17 36  1  0
 18 37  1  0
 19 38  1  0
M  END
>  <filename_input>  (5) 
8EX2_Q2Q_docked.sdf

>  <pdb_id>  (5) 
8EX2_Q2Q

>  <pose_rank>  (5) 
4

>  <num_atoms_heavy>  (5) 
26

>  <num_torsions>  (5) 
3

>  <pose>  (5) 
[17.713953817243716, 13.128261455873565, 23.48152175548795, -4.0935293589989445, -2.648113554056859, -3.566387738406839, -0.35777923945832496, 0.054103190424240714, -2.0938297057887123]

>  <energy>  (5) 
-745.7025078469262

>  <inter_energy>  (5) 
-759.930466389191

>  <intra_energy>  (5) 
15.971382070243394

>  <rmsd>  (5) 
1.48477

>  <sdf_rank>  (5) 
0

$$$$

     RDKit          3D

 38 41  0  0  0  0  0  0  0  0999 V2000
   12.9116   14.5221   25.1553 C   0  0  0  0  0  0  0  0  0  0  0  0
   13.4575   13.2898   24.8004 C   0  0  0  0  0  0  0  0  0  0  0  0
   14.7089   13.2270   24.1397 C   0  0  0  0  0  0  0  0  0  0  0  0
   15.4708   14.3765   23.8062 C   0  0  0  0  0  0  0  0  0  0  0  0
   14.8865   15.6149   24.2274 C   0  0  0  0  0  0  0  0  0  0  0  0
   13.6392   15.6905   24.8646 C   0  0  0  0  0  0  0  0  0  0  0  0
   16.8547   14.3453   23.1405 C   0  0  0  0  0  0  0  0  0  0  0  0
   17.2635   15.3074   22.2030 C   0  0  0  0  0  0  0  0  0  0  0  0
   18.5371   15.2869   21.5621 C   0  0  0  0  0  0  0  0  0  0  0  0
   18.9155   13.2378   22.8563 C   0  0  0  0  0  0  0  0  0  0  0  0
   20.0260   12.2686   22.9878 C   0  0  0  0  0  0  0  0  0  0  0  0
   20.9854   12.7411   22.1353 C   0  0  0  0  0  0  0  0  0  0  0  0
   22.3493   12.1552   21.7947 C   0  0  2  0  0  0  0  0  0  0  0  0
   20.0654   11.1175   23.8869 C   0  0  0  0  0  0  0  0  0  0  0  0
   21.2972   10.7703   24.5238 C   0  0  0  0  0  0  0  0  0  0  0  0
   21.4160    9.6636   25.3979 C   0  0  0  0  0  0  0  0  0  0  0  0
   20.2937    8.8593   25.6551 C   0  0  0  0  0  0  0  0  0  0  0  0
   19.0724    9.1523   24.9951 C   0  0  0  0  0  0  0  0  0  0  0  0
   18.9652   10.2634   24.1244 C   0  0  0  0  0  0  0  0  0  0  0  0
   23.1953   12.4231   22.7941 F   0  0  0  0  0  0  0  0  0  0  0  0
   22.8050   12.6864   20.6541 F   0  0  0  0  0  0  0  0  0  0  0  0
   22.2918   10.8003   21.6133 F   0  0  0  0  0  0  0  0  0  0  0  0
   19.3455   14.1783   21.9090 N   0  0  0  0  0  0  0  0  0  0  0  0
   17.7142   13.3016   23.4368 N   0  0  0  0  0  0  0  0  0  0  0  0
   20.6187   13.8722   21.4919 N   0  0  0  0  0  0  0  0  0  0  0  0
   19.0306   16.0553   20.7347 O   0  0  0  0  0  0  0  0  0  0  0  0
   11.9320   14.5799   25.6524 H   0  0  0  0  0  0  0  0  0  0  0  0
   12.9144   12.3622   25.0344 H   0  0  0  0  0  0  0  0  0  0  0  0
   15.1097   12.2382   23.8720 H   0  0  0  0  0  0  0  0  0  0  0  0
   15.4403   16.5473   24.0431 H   0  0  0  0  0  0  0  0  0  0  0  0
   13.2263   16.6722   25.1395 H   0  0  0  0  0  0  0  0  0  0  0  0
   16.5188   15.2752   21.3941 H   0  0  0  0  0  0  0  0  0  0  0  0
   17.3555   16.2014   22.8373 H   0  0  0  0  0  0  0  0  0  0  0  0
   22.1867   11.3867   24.3268 H   0  0  0  0  0  0  0  0  0  0  0  0
   22.3814    9.4348   25.8730 H   0  0  0  0  0  0  0  0  0  0  0  0
   20.3606    8.0152   26.3573 H   0  0  0  0  0  0  0  0  0  0  0  0
   18.1970    8.5075   25.1622 H   0  0  0  0  0  0  0  0  0  0  0  0
   18.0071   10.4656   23.6231 H   0  0  0  0  0  0  0  0  0  0  0  0
  1  2  2  0
  1  6  1  0
  2  3  1  0
  3  4  2  0
  4  5  1  0
  4  7  1  0
  5  6  2  0
  7  8  1  0
  7 24  2  0
  8  9  1  0
  9 23  1  0
  9 26  2  0
 10 11  2  0
 10 23  1  0
 10 24  1  0
 11 12  1  0
 11 14  1  0
 12 13  1  0
 12 25  2  0
 13 20  1  1
 13 21  1  0
 13 22  1  0
 14 15  2  0
 14 19  1  0
 15 16  1  0
 16 17  2  0
 17 18  1  0
 18 19  2  0
 23 25  1  0
  1 27  1  0
  2 28  1  0
  3 29  1  0
  5 30  1  0
  6 31  1  0
  8 32  1  0
  8 33  1  0
 15 34  1  0
 16 35  1  0
 17 36  1  0
 18 37  1  0
 19 38  1  0
M  END
>  <filename_input>  (6) 
8EX2_Q2Q_docked.sdf

>  <pdb_id>  (6) 
8EX2_Q2Q

>  <pose_rank>  (6) 
5

>  <num_atoms_heavy>  (6) 
26

>  <num_torsions>  (6) 
3

>  <pose>  (6) 
[16.854691196783502, 14.345315266541165, 23.140532277567633, -4.497916555643597, -2.9283249080989293, -3.5174375404251426, -4.123556587597448, -1.711276442016395, 5.7487745882048715]

>  <energy>  (6) 
-807.3978572294304

>  <inter_energy>  (6) 
-826.132375436185

>  <intra_energy>  (6) 
21.03836849736916

>  <rmsd>  (6) 
1.67911

>  <sdf_rank>  (6) 
0

$$$$

     RDKit          3D

 38 41  0  0  0  0  0  0  0  0999 V2000
   24.2589   10.6884   20.7797 C   0  0  0  0  0  0  0  0  0  0  0  0
   23.1517   10.0946   21.3831 C   0  0  0  0  0  0  0  0  0  0  0  0
   21.9929   10.8609   21.6597 C   0  0  0  0  0  0  0  0  0  0  0  0
   21.8807   12.2409   21.3495 C   0  0  0  0  0  0  0  0  0  0  0  0
   23.0285   12.7942   20.6947 C   0  0  0  0  0  0  0  0  0  0  0  0
   24.1885   12.0501   20.4336 C   0  0  0  0  0  0  0  0  0  0  0  0
   20.6224   13.0902   21.5836 C   0  0  0  0  0  0  0  0  0  0  0  0
   20.4501   14.3592   21.0078 C   0  0  0  0  0  0  0  0  0  0  0  0
   19.2973   15.1697   21.2256 C   0  0  0  0  0  0  0  0  0  0  0  0
   18.5473   13.3370   22.6731 C   0  0  0  0  0  0  0  0  0  0  0  0
   17.3526   13.0790   23.5074 C   0  0  0  0  0  0  0  0  0  0  0  0
   16.5839   14.1987   23.3465 C   0  0  0  0  0  0  0  0  0  0  0  0
   15.2470   14.5533   23.9843 C   0  0  2  0  0  0  0  0  0  0  0  0
   17.0742   11.8599   24.2633 C   0  0  0  0  0  0  0  0  0  0  0  0
   17.2474   11.8629   25.6823 C   0  0  0  0  0  0  0  0  0  0  0  0
   17.0086   10.7186   26.4801 C   0  0  0  0  0  0  0  0  0  0  0  0
   16.5933    9.5230   25.8712 C   0  0  0  0  0  0  0  0  0  0  0  0
   16.4639    9.4798   24.4590 C   0  0  0  0  0  0  0  0  0  0  0  0
   16.7035   10.6317   23.6716 C   0  0  0  0  0  0  0  0  0  0  0  0
   14.6262   15.4511   23.2131 F   0  0  0  0  0  0  0  0  0  0  0  0
   15.4422   15.0580   25.2083 F   0  0  0  0  0  0  0  0  0  0  0  0
   14.4415   13.4564   24.1245 F   0  0  0  0  0  0  0  0  0  0  0  0
   18.3538   14.6113   22.1205 N   0  0  0  0  0  0  0  0  0  0  0  0
   19.6422   12.6099   22.4346 N   0  0  0  0  0  0  0  0  0  0  0  0
   17.1420   15.1169   22.5259 N   0  0  0  0  0  0  0  0  0  0  0  0
   19.0079   16.2855   20.7899 O   0  0  0  0  0  0  0  0  0  0  0  0
   25.1689   10.1042   20.5781 H   0  0  0  0  0  0  0  0  0  0  0  0
   23.1779    9.0268   21.6456 H   0  0  0  0  0  0  0  0  0  0  0  0
   21.1379   10.3615   22.1388 H   0  0  0  0  0  0  0  0  0  0  0  0
   22.9988   13.8487   20.3830 H   0  0  0  0  0  0  0  0  0  0  0  0
   25.0510   12.5358   19.9538 H   0  0  0  0  0  0  0  0  0  0  0  0
   21.3085   14.9606   21.3417 H   0  0  0  0  0  0  0  0  0  0  0  0
   20.3340   14.1000   19.9451 H   0  0  0  0  0  0  0  0  0  0  0  0
   17.5789   12.7900   26.1729 H   0  0  0  0  0  0  0  0  0  0  0  0
   17.1475   10.7653   27.5703 H   0  0  0  0  0  0  0  0  0  0  0  0
   16.3717    8.6339   26.4799 H   0  0  0  0  0  0  0  0  0  0  0  0
   16.1735    8.5386   23.9692 H   0  0  0  0  0  0  0  0  0  0  0  0
   16.5991   10.5692   22.5783 H   0  0  0  0  0  0  0  0  0  0  0  0
  1  2  2  0
  1  6  1  0
  2  3  1  0
  3  4  2  0
  4  5  1  0
  4  7  1  0
  5  6  2  0
  7  8  1  0
  7 24  2  0
  8  9  1  0
  9 23  1  0
  9 26  2  0
 10 11  2  0
 10 23  1  0
 10 24  1  0
 11 12  1  0
 11 14  1  0
 12 13  1  0
 12 25  2  0
 13 20  1  6
 13 21  1  0
 13 22  1  0
 14 15  2  0
 14 19  1  0
 15 16  1  0
 16 17  2  0
 17 18  1  0
 18 19  2  0
 23 25  1  0
  1 27  1  0
  2 28  1  0
  3 29  1  0
  5 30  1  0
  6 31  1  0
  8 32  1  0
  8 33  1  0
 15 34  1  0
 16 35  1  0
 17 36  1  0
 18 37  1  0
 19 38  1  0
M  END
>  <filename_input>  (7) 
8EX2_Q2Q_docked.sdf

>  <pdb_id>  (7) 
8EX2_Q2Q

>  <pose_rank>  (7) 
6

>  <num_atoms_heavy>  (7) 
26

>  <num_torsions>  (7) 
3

>  <pose>  (7) 
[20.622448967765354, 13.090155908100392, 21.583608965370853, -0.1061996500437057, -2.6088844494431296, 1.6233200377677628, -3.252639863505554, 2.5900906628014235, -1.9238318365320655]

>  <energy>  (7) 
-811.2408849479966

>  <inter_energy>  (7) 
-799.3752536359555

>  <intra_energy>  (7) 
3.0867527145528073

>  <rmsd>  (7) 
6.54443

>  <sdf_rank>  (7) 
0

$$$$

     RDKit          3D

 38 41  0  0  0  0  0  0  0  0999 V2000
   24.9504   10.9319   21.4053 C   0  0  0  0  0  0  0  0  0  0  0  0
   24.8976   12.0202   22.2744 C   0  0  0  0  0  0  0  0  0  0  0  0
   23.7520   12.8526   22.3073 C   0  0  0  0  0  0  0  0  0  0  0  0
   22.6138   12.6420   21.4866 C   0  0  0  0  0  0  0  0  0  0  0  0
   22.7007   11.4888   20.6410 C   0  0  0  0  0  0  0  0  0  0  0  0
   23.8376   10.6691   20.5858 C   0  0  0  0  0  0  0  0  0  0  0  0
   21.3333   13.4890   21.5335 C   0  0  0  0  0  0  0  0  0  0  0  0
   21.2166   14.7188   20.8658 C   0  0  0  0  0  0  0  0  0  0  0  0
   20.0429   15.5273   20.9100 C   0  0  0  0  0  0  0  0  0  0  0  0
   19.1526   13.7768   22.3797 C   0  0  0  0  0  0  0  0  0  0  0  0
   17.8772   13.5557   23.0969 C   0  0  0  0  0  0  0  0  0  0  0  0
   17.1242   14.6545   22.7870 C   0  0  0  0  0  0  0  0  0  0  0  0
   15.7251   15.0313   23.2565 C   0  0  2  0  0  0  0  0  0  0  0  0
   17.5264   12.3814   23.8925 C   0  0  0  0  0  0  0  0  0  0  0  0
   17.4035   11.1117   23.2473 C   0  0  0  0  0  0  0  0  0  0  0  0
   17.0562    9.9326   23.9487 C   0  0  0  0  0  0  0  0  0  0  0  0
   16.8110    9.9942   25.3303 C   0  0  0  0  0  0  0  0  0  0  0  0
   16.8760   11.2515   25.9844 C   0  0  0  0  0  0  0  0  0  0  0  0
   17.2265   12.4239   25.2725 C   0  0  0  0  0  0  0  0  0  0  0  0
   15.2274   15.9559   22.4297 F   0  0  0  0  0  0  0  0  0  0  0  0
   15.7740   15.5117   24.5046 F   0  0  0  0  0  0  0  0  0  0  0  0
   14.8844   13.9520   23.2729 F   0  0  0  0  0  0  0  0  0  0  0  0
   19.0124   15.0130   21.7325 N   0  0  0  0  0  0  0  0  0  0  0  0
   20.2705   13.0496   22.3037 N   0  0  0  0  0  0  0  0  0  0  0  0
   17.7616   15.5279   21.9753 N   0  0  0  0  0  0  0  0  0  0  0  0
   19.7956   16.6112   20.3784 O   0  0  0  0  0  0  0  0  0  0  0  0
   25.8438   10.2917   21.3611 H   0  0  0  0  0  0  0  0  0  0  0  0
   25.7490   12.2336   22.9374 H   0  0  0  0  0  0  0  0  0  0  0  0
   23.7442   13.7042   23.0034 H   0  0  0  0  0  0  0  0  0  0  0  0
   21.8382   11.2351   20.0073 H   0  0  0  0  0  0  0  0  0  0  0  0
   23.8592    9.8130   19.8955 H   0  0  0  0  0  0  0  0  0  0  0  0
   22.0313   15.3493   21.2513 H   0  0  0  0  0  0  0  0  0  0  0  0
   21.2157   14.3944   19.8147 H   0  0  0  0  0  0  0  0  0  0  0  0
   17.5857   11.0487   22.1643 H   0  0  0  0  0  0  0  0  0  0  0  0
   16.9788    8.9737   23.4151 H   0  0  0  0  0  0  0  0  0  0  0  0
   16.5722    9.0817   25.8964 H   0  0  0  0  0  0  0  0  0  0  0  0
   16.6511   11.3163   27.0592 H   0  0  0  0  0  0  0  0  0  0  0  0
   17.2661   13.3862   25.8039 H   0  0  0  0  0  0  0  0  0  0  0  0
  1  2  2  0
  1  6  1  0
  2  3  1  0
  3  4  2  0
  4  5  1  0
  4  7  1  0
  5  6  2  0
  7  8  1  0
  7 24  2  0
  8  9  1  0
  9 23  1  0
  9 26  2  0
 10 11  2  0
 10 23  1  0
 10 24  1  0
 11 12  1  0
 11 14  1  0
 12 13  1  0
 12 25  2  0
 13 20  1  6
 13 21  1  0
 13 22  1  0
 14 15  2  0
 14 19  1  0
 15 16  1  0
 16 17  2  0
 17 18  1  0
 18 19  2  0
 23 25  1  0
  1 27  1  0
  2 28  1  0
  3 29  1  0
  5 30  1  0
  6 31  1  0
  8 32  1  0
  8 33  1  0
 15 34  1  0
 16 35  1  0
 17 36  1  0
 18 37  1  0
 19 38  1  0
M  END
>  <filename_input>  (8) 
8EX2_Q2Q_docked.sdf

>  <pdb_id>  (8) 
8EX2_Q2Q

>  <pose_rank>  (8) 
7

>  <num_atoms_heavy>  (8) 
26

>  <num_torsions>  (8) 
3

>  <pose>  (8) 
[21.333312118777123, 13.488985941923305, 21.533482734833008, -0.19013419955448668, -2.639940302954392, 1.7473949969946965, 1.076902915466805, -0.3578777970554435, -2.0108622913852066]

>  <energy>  (8) 
-975.7235696462424

>  <inter_energy>  (8) 
-957.0837225629008

>  <intra_energy>  (8) 
3.4375734264714906

>  <rmsd>  (8) 
6.46097

>  <sdf_rank>  (8) 
0

$$$$

     RDKit          3D

 38 41  0  0  0  0  0  0  0  0999 V2000
   14.7867   13.0194   25.5272 C   0  0  0  0  0  0  0  0  0  0  0  0
   14.5708   14.0095   24.5703 C   0  0  0  0  0  0  0  0  0  0  0  0
   15.6268   14.4255   23.7228 C   0  0  0  0  0  0  0  0  0  0  0  0
   16.9349   13.8794   23.7847 C   0  0  0  0  0  0  0  0  0  0  0  0
   17.0949   12.8384   24.7559 C   0  0  0  0  0  0  0  0  0  0  0  0
   16.0621   12.4320   25.6135 C   0  0  0  0  0  0  0  0  0  0  0  0
   18.0888   14.2654   22.8472 C   0  0  0  0  0  0  0  0  0  0  0  0
   18.0783   15.4427   22.0819 C   0  0  0  0  0  0  0  0  0  0  0  0
   19.1316   15.8108   21.1941 C   0  0  0  0  0  0  0  0  0  0  0  0
   20.1647   13.6968   21.8873 C   0  0  0  0  0  0  0  0  0  0  0  0
   21.4181   12.9825   21.5578 C   0  0  0  0  0  0  0  0  0  0  0  0
   22.0358   13.7936   20.6460 C   0  0  0  0  0  0  0  0  0  0  0  0
   23.3462   13.5853   19.8984 C   0  0  2  0  0  0  0  0  0  0  0  0
   21.8774   11.7273   22.1481 C   0  0  0  0  0  0  0  0  0  0  0  0
   20.9185   10.8252   22.7052 C   0  0  0  0  0  0  0  0  0  0  0  0
   21.2877    9.5970   23.3037 C   0  0  0  0  0  0  0  0  0  0  0  0
   22.6439    9.2377   23.3697 C   0  0  0  0  0  0  0  0  0  0  0  0
   23.6189   10.1394   22.8703 C   0  0  0  0  0  0  0  0  0  0  0  0
   23.2372   11.3643   22.2718 C   0  0  0  0  0  0  0  0  0  0  0  0
   23.5773   14.6526   19.1280 F   0  0  0  0  0  0  0  0  0  0  0  0
   23.2735   12.4827   19.1435 F   0  0  0  0  0  0  0  0  0  0  0  0
   24.4009   13.4189   20.7539 F   0  0  0  0  0  0  0  0  0  0  0  0
   20.1756   14.8596   21.1033 N   0  0  0  0  0  0  0  0  0  0  0  0
   19.1576   13.3965   22.7118 N   0  0  0  0  0  0  0  0  0  0  0  0
   21.3332   14.9140   20.3648 N   0  0  0  0  0  0  0  0  0  0  0  0
   19.2623   16.8009   20.4722 O   0  0  0  0  0  0  0  0  0  0  0  0
   13.9765   12.7038   26.2010 H   0  0  0  0  0  0  0  0  0  0  0  0
   13.5765   14.4696   24.4728 H   0  0  0  0  0  0  0  0  0  0  0  0
   15.4226   15.2108   22.9801 H   0  0  0  0  0  0  0  0  0  0  0  0
   18.0704   12.3359   24.8323 H   0  0  0  0  0  0  0  0  0  0  0  0
   16.2511   11.6469   26.3604 H   0  0  0  0  0  0  0  0  0  0  0  0
   17.1685   15.3932   21.4657 H   0  0  0  0  0  0  0  0  0  0  0  0
   18.1776   16.2096   22.8643 H   0  0  0  0  0  0  0  0  0  0  0  0
   19.8530   11.0959   22.6671 H   0  0  0  0  0  0  0  0  0  0  0  0
   20.5173    8.9280   23.7147 H   0  0  0  0  0  0  0  0  0  0  0  0
   22.9454    8.2721   23.8018 H   0  0  0  0  0  0  0  0  0  0  0  0
   24.6857    9.8833   22.9493 H   0  0  0  0  0  0  0  0  0  0  0  0
   24.0141   12.0463   21.8960 H   0  0  0  0  0  0  0  0  0  0  0  0
  1  2  2  0
  1  6  1  0
  2  3  1  0
  3  4  2  0
  4  5  1  0
  4  7  1  0
  5  6  2  0
  7  8  1  0
  7 24  2  0
  8  9  1  0
  9 23  1  0
  9 26  2  0
 10 11  2  0
 10 23  1  0
 10 24  1  0
 11 12  1  0
 11 14  1  0
 12 13  1  0
 12 25  2  0
 13 20  1  6
 13 21  1  0
 13 22  1  0
 14 15  2  0
 14 19  1  0
 15 16  1  0
 16 17  2  0
 17 18  1  0
 18 19  2  0
 23 25  1  0
  1 27  1  0
  2 28  1  0
  3 29  1  0
  5 30  1  0
  6 31  1  0
  8 32  1  0
  8 33  1  0
 15 34  1  0
 16 35  1  0
 17 36  1  0
 18 37  1  0
 19 38  1  0
M  END
>  <filename_input>  (9) 
8EX2_Q2Q_docked.sdf

>  <pdb_id>  (9) 
8EX2_Q2Q

>  <pose_rank>  (9) 
8

>  <num_atoms_heavy>  (9) 
26

>  <num_torsions>  (9) 
3

>  <pose>  (9) 
[18.088772080242247, 14.265419007353437, 22.8472293171479, 0.10760097267195147, 0.17711873579817455, 0.12789235731286897, 6.2392952867951434, -17.645869910772888, -2.2983062755922443]

>  <energy>  (9) 
-1001.6353181064412

>  <inter_energy>  (9) 
-1035.759057268688

>  <intra_energy>  (9) 
30.035347534566377

>  <rmsd>  (9) 
1.11061

>  <sdf_rank>  (9) 
0

$$$$

     RDKit          3D

 38 41  0  0  0  0  0  0  0  0999 V2000
   24.8875   10.8723   21.0135 C   0  0  0  0  0  0  0  0  0  0  0  0
   24.7978   12.0149   20.2204 C   0  0  0  0  0  0  0  0  0  0  0  0
   23.6381   12.8269   20.2667 C   0  0  0  0  0  0  0  0  0  0  0  0
   22.5239   12.5447   21.0987 C   0  0  0  0  0  0  0  0  0  0  0  0
   22.6813   11.3836   21.9229 C   0  0  0  0  0  0  0  0  0  0  0  0
   23.8165   10.5614   21.8712 C   0  0  0  0  0  0  0  0  0  0  0  0
   21.2743   13.4302   21.2166 C   0  0  0  0  0  0  0  0  0  0  0  0
   21.1362   14.6386   20.5148 C   0  0  0  0  0  0  0  0  0  0  0  0
   19.9919   15.4823   20.6229 C   0  0  0  0  0  0  0  0  0  0  0  0
   19.1782   13.8116   22.2240 C   0  0  0  0  0  0  0  0  0  0  0  0
   17.9600   13.6536   23.0492 C   0  0  0  0  0  0  0  0  0  0  0  0
   17.2136   14.7625   22.7599 C   0  0  0  0  0  0  0  0  0  0  0  0
   15.8679   15.1966   23.3259 C   0  0  2  0  0  0  0  0  0  0  0  0
   17.6441   12.5189   23.9139 C   0  0  0  0  0  0  0  0  0  0  0  0
   18.4640   12.2615   25.0563 C   0  0  0  0  0  0  0  0  0  0  0  0
   18.2277   11.1760   25.9331 C   0  0  0  0  0  0  0  0  0  0  0  0
   17.1566   10.3027   25.6828 C   0  0  0  0  0  0  0  0  0  0  0  0
   16.3595   10.5065   24.5268 C   0  0  0  0  0  0  0  0  0  0  0  0
   16.6043   11.5971   23.6582 C   0  0  0  0  0  0  0  0  0  0  0  0
   15.4792   16.3141   22.7045 F   0  0  0  0  0  0  0  0  0  0  0  0
   15.9733   15.4172   24.6417 F   0  0  0  0  0  0  0  0  0  0  0  0
   14.9083   14.2366   23.1540 F   0  0  0  0  0  0  0  0  0  0  0  0
   19.0185   15.0279   21.5443 N   0  0  0  0  0  0  0  0  0  0  0  0
   20.2665   13.0497   22.0856 N   0  0  0  0  0  0  0  0  0  0  0  0
   17.8057   15.5876   21.8674 N   0  0  0  0  0  0  0  0  0  0  0  0
   19.7309   16.5536   20.0727 O   0  0  0  0  0  0  0  0  0  0  0  0
   25.7772   10.2269   20.9697 H   0  0  0  0  0  0  0  0  0  0  0  0
   25.6311   12.2872   19.5559 H   0  0  0  0  0  0  0  0  0  0  0  0
   23.5994   13.7203   19.6262 H   0  0  0  0  0  0  0  0  0  0  0  0
   21.8767   11.1255   22.6272 H   0  0  0  0  0  0  0  0  0  0  0  0
   23.8700    9.6654   22.5070 H   0  0  0  0  0  0  0  0  0  0  0  0
   21.9961   15.2580   20.8096 H   0  0  0  0  0  0  0  0  0  0  0  0
   21.0412   14.2776   19.4801 H   0  0  0  0  0  0  0  0  0  0  0  0
   19.3110   12.9327   25.2616 H   0  0  0  0  0  0  0  0  0  0  0  0
   18.8790   11.0173   26.8053 H   0  0  0  0  0  0  0  0  0  0  0  0
   16.9390    9.4737   26.3723 H   0  0  0  0  0  0  0  0  0  0  0  0
   15.5402    9.8075   24.3026 H   0  0  0  0  0  0  0  0  0  0  0  0
   15.9729   11.7295   22.7672 H   0  0  0  0  0  0  0  0  0  0  0  0
  1  2  2  0
  1  6  1  0
  2  3  1  0
  3  4  2  0
  4  5  1  0
  4  7  1  0
  5  6  2  0
  7  8  1  0
  7 24  2  0
  8  9  1  0
  9 23  1  0
  9 26  2  0
 10 11  2  0
 10 23  1  0
 10 24  1  0
 11 12  1  0
 11 14  1  0
 12 13  1  0
 12 25  2  0
 13 20  1  6
 13 21  1  0
 13 22  1  0
 14 15  2  0
 14 19  1  0
 15 16  1  0
 16 17  2  0
 17 18  1  0
 18 19  2  0
 23 25  1  0
  1 27  1  0
  2 28  1  0
  3 29  1  0
  5 30  1  0
  6 31  1  0
  8 32  1  0
  8 33  1  0
 15 34  1  0
 16 35  1  0
 17 36  1  0
 18 37  1  0
 19 38  1  0
M  END
>  <filename_input>  (10) 
8EX2_Q2Q_docked.sdf

>  <pdb_id>  (10) 
8EX2_Q2Q

>  <pose_rank>  (10) 
9

>  <num_atoms_heavy>  (10) 
26

>  <num_torsions>  (10) 
3

>  <pose>  (10) 
[21.274311648816255, 13.430150588714227, 21.21656200901568, -0.15132011248363847, -2.538814260259435, 1.7564120540419674, -0.38152779539776177, 1.9080805757285957, -2.267297931784592]

>  <energy>  (10) 
-1001.4322936804562

>  <inter_energy>  (10) 
-990.6395347564961

>  <intra_energy>  (10) 
2.615817718212848

>  <rmsd>  (10) 
6.45003

>  <sdf_rank>  (10) 
0

$$$$

     RDKit          3D

 38 41  0  0  0  0  0  0  0  0999 V2000
   14.0757   13.3507   24.6307 C   0  0  0  0  0  0  0  0  0  0  0  0
   14.3754   14.6779   24.3285 C   0  0  0  0  0  0  0  0  0  0  0  0
   15.6162   15.0116   23.7322 C   0  0  0  0  0  0  0  0  0  0  0  0
   16.6074   14.0493   23.4087 C   0  0  0  0  0  0  0  0  0  0  0  0
   16.2356   12.6971   23.7015 C   0  0  0  0  0  0  0  0  0  0  0  0
   15.0183   12.3569   24.3097 C   0  0  0  0  0  0  0  0  0  0  0  0
   17.9393   14.3662   22.7124 C   0  0  0  0  0  0  0  0  0  0  0  0
   18.1743   15.5815   22.0492 C   0  0  0  0  0  0  0  0  0  0  0  0
   19.3972   15.8883   21.3834 C   0  0  0  0  0  0  0  0  0  0  0  0
   20.0892   13.6395   22.0766 C   0  0  0  0  0  0  0  0  0  0  0  0
   21.3084   12.8175   21.9099 C   0  0  0  0  0  0  0  0  0  0  0  0
   22.1503   13.6115   21.1809 C   0  0  0  0  0  0  0  0  0  0  0  0
   23.5465   13.3107   20.6520 C   0  0  2  0  0  0  0  0  0  0  0  0
   21.5368   11.4879   22.4711 C   0  0  0  0  0  0  0  0  0  0  0  0
   20.8197   11.0915   23.6426 C   0  0  0  0  0  0  0  0  0  0  0  0
   20.9955    9.8253   24.2498 C   0  0  0  0  0  0  0  0  0  0  0  0
   21.9112    8.9134   23.6998 C   0  0  0  0  0  0  0  0  0  0  0  0
   22.6728    9.3025   22.5677 C   0  0  0  0  0  0  0  0  0  0  0  0
   22.4866   10.5712   21.9676 C   0  0  0  0  0  0  0  0  0  0  0  0
   23.4492   12.4187   19.6615 F   0  0  0  0  0  0  0  0  0  0  0  0
   24.3138   12.8229   21.6340 F   0  0  0  0  0  0  0  0  0  0  0  0
   24.1656   14.4347   20.1776 F   0  0  0  0  0  0  0  0  0  0  0  0
   20.3469   14.8392   21.3976 N   0  0  0  0  0  0  0  0  0  0  0  0
   18.9290   13.3988   22.6933 N   0  0  0  0  0  0  0  0  0  0  0  0
   21.6164   14.8147   20.8719 N   0  0  0  0  0  0  0  0  0  0  0  0
   19.7453   16.9003   20.7723 O   0  0  0  0  0  0  0  0  0  0  0  0
   13.1219   13.0858   25.1103 H   0  0  0  0  0  0  0  0  0  0  0  0
   13.6455   15.4693   24.5540 H   0  0  0  0  0  0  0  0  0  0  0  0
   15.8214   16.0690   23.5089 H   0  0  0  0  0  0  0  0  0  0  0  0
   16.9354   11.8904   23.4378 H   0  0  0  0  0  0  0  0  0  0  0  0
   14.7987   11.3035   24.5378 H   0  0  0  0  0  0  0  0  0  0  0  0
   17.3866   15.6653   21.2860 H   0  0  0  0  0  0  0  0  0  0  0  0
   18.2058   16.2856   22.8938 H   0  0  0  0  0  0  0  0  0  0  0  0
   20.1039   11.7975   24.0890 H   0  0  0  0  0  0  0  0  0  0  0  0
   20.4185    9.5570   25.1471 H   0  0  0  0  0  0  0  0  0  0  0  0
   22.0360    7.9130   24.1398 H   0  0  0  0  0  0  0  0  0  0  0  0
   23.4180    8.6092   22.1507 H   0  0  0  0  0  0  0  0  0  0  0  0
   23.0930   10.8484   21.0927 H   0  0  0  0  0  0  0  0  0  0  0  0
  1  2  2  0
  1  6  1  0
  2  3  1  0
  3  4  2  0
  4  5  1  0
  4  7  1  0
  5  6  2  0
  7  8  1  0
  7 24  2  0
  8  9  1  0
  9 23  1  0
  9 26  2  0
 10 11  2  0
 10 23  1  0
 10 24  1  0
 11 12  1  0
 11 14  1  0
 12 13  1  0
 12 25  2  0
 13 20  1  6
 13 21  1  0
 13 22  1  0
 14 15  2  0
 14 19  1  0
 15 16  1  0
 16 17  2  0
 17 18  1  0
 18 19  2  0
 23 25  1  0
  1 27  1  0
  2 28  1  0
  3 29  1  0
  5 30  1  0
  6 31  1  0
  8 32  1  0
  8 33  1  0
 15 34  1  0
 16 35  1  0
 17 36  1  0
 18 37  1  0
 19 38  1  0
M  END
>  <filename_input>  (11) 
8EX2_Q2Q_docked.sdf

>  <pdb_id>  (11) 
8EX2_Q2Q

>  <pose_rank>  (11) 
10

>  <num_atoms_heavy>  (11) 
26

>  <num_torsions>  (11) 
3

>  <pose>  (11) 
[17.939349261507232, 14.366242954899597, 22.71239926256558, 0.172841298058371, -0.006382006834750079, 0.04269112174346707, 11.941063517682993, 0.3433921761992564, 8.336368905446864]

>  <energy>  (11) 
-973.6983117997343

>  <inter_energy>  (11) 
-1006.734937407891

>  <intra_energy>  (11) 
30.664602479834368

>  <rmsd>  (11) 
0.634828

>  <sdf_rank>  (11) 
0

$$$$

     RDKit          3D

 38 41  0  0  0  0  0  0  0  0999 V2000
   13.7392   14.2719   24.5102 C   0  0  0  0  0  0  0  0  0  0  0  0
   14.8933   13.6530   24.9871 C   0  0  0  0  0  0  0  0  0  0  0  0
   16.1186   13.7930   24.2903 C   0  0  0  0  0  0  0  0  0  0  0  0
   16.2531   14.5507   23.0982 C   0  0  0  0  0  0  0  0  0  0  0  0
   15.0490   15.1992   22.6716 C   0  0  0  0  0  0  0  0  0  0  0  0
   13.8261   15.0518   23.3425 C   0  0  0  0  0  0  0  0  0  0  0  0
   17.5743   14.7704   22.3462 C   0  0  0  0  0  0  0  0  0  0  0  0
   17.7948   15.8810   21.5158 C   0  0  0  0  0  0  0  0  0  0  0  0
   19.0075   16.0947   20.7969 C   0  0  0  0  0  0  0  0  0  0  0  0
   19.7190   13.9675   21.7897 C   0  0  0  0  0  0  0  0  0  0  0  0
   20.9399   13.1338   21.7236 C   0  0  0  0  0  0  0  0  0  0  0  0
   21.7684   13.8198   20.8789 C   0  0  0  0  0  0  0  0  0  0  0  0
   23.1589   13.4516   20.3786 C   0  0  2  0  0  0  0  0  0  0  0  0
   21.1817   11.8969   22.4629 C   0  0  0  0  0  0  0  0  0  0  0  0
   21.1087   11.9106   23.8905 C   0  0  0  0  0  0  0  0  0  0  0  0
   21.3413   10.7559   24.6751 C   0  0  0  0  0  0  0  0  0  0  0  0
   21.6660    9.5432   24.0453 C   0  0  0  0  0  0  0  0  0  0  0  0
   21.7953    9.5156   22.6326 C   0  0  0  0  0  0  0  0  0  0  0  0
   21.5580   10.6767   21.8582 C   0  0  0  0  0  0  0  0  0  0  0  0
   23.9325   13.1623   21.4294 F   0  0  0  0  0  0  0  0  0  0  0  0
   23.6841   14.4722   19.6905 F   0  0  0  0  0  0  0  0  0  0  0  0
   23.1298   12.3721   19.5385 F   0  0  0  0  0  0  0  0  0  0  0  0
   19.9623   15.0606   20.9454 N   0  0  0  0  0  0  0  0  0  0  0  0
   18.5682   13.8127   22.4498 N   0  0  0  0  0  0  0  0  0  0  0  0
   21.2249   14.9661   20.4112 N   0  0  0  0  0  0  0  0  0  0  0  0
   19.3428   17.0117   20.0450 O   0  0  0  0  0  0  0  0  0  0  0  0
   12.7803   14.1530   25.0358 H   0  0  0  0  0  0  0  0  0  0  0  0
   14.8525   13.0534   25.9085 H   0  0  0  0  0  0  0  0  0  0  0  0
   17.0097   13.2895   24.6931 H   0  0  0  0  0  0  0  0  0  0  0  0
   15.0851   15.8408   21.7789 H   0  0  0  0  0  0  0  0  0  0  0  0
   12.9267   15.5506   22.9522 H   0  0  0  0  0  0  0  0  0  0  0  0
   16.9968   15.8545   20.7592 H   0  0  0  0  0  0  0  0  0  0  0  0
   17.8341   16.6969   22.2525 H   0  0  0  0  0  0  0  0  0  0  0  0
   20.8622   12.8545   24.3986 H   0  0  0  0  0  0  0  0  0  0  0  0
   21.2684   10.8079   25.7715 H   0  0  0  0  0  0  0  0  0  0  0  0
   21.8176    8.6291   24.6380 H   0  0  0  0  0  0  0  0  0  0  0  0
   22.0839    8.5794   22.1324 H   0  0  0  0  0  0  0  0  0  0  0  0
   21.6687   10.6279   20.7649 H   0  0  0  0  0  0  0  0  0  0  0  0
  1  2  2  0
  1  6  1  0
  2  3  1  0
  3  4  2  0
  4  5  1  0
  4  7  1  0
  5  6  2  0
  7  8  1  0
  7 24  2  0
  8  9  1  0
  9 23  1  0
  9 26  2  0
 10 11  2  0
 10 23  1  0
 10 24  1  0
 11 12  1  0
 11 14  1  0
 12 13  1  0
 12 25  2  0
 13 20  1  1
 13 21  1  0
 13 22  1  0
 14 15  2  0
 14 19  1  0
 15 16  1  0
 16 17  2  0
 17 18  1  0
 18 19  2  0
 23 25  1  0
  1 27  1  0
  2 28  1  0
  3 29  1  0
  5 30  1  0
  6 31  1  0
  8 32  1  0
  8 33  1  0
 15 34  1  0
 16 35  1  0
 17 36  1  0
 18 37  1  0
 19 38  1  0
M  END
>  <filename_input>  (12) 
8EX2_Q2Q_docked.sdf

>  <pdb_id>  (12) 
8EX2_Q2Q

>  <pose_rank>  (12) 
11

>  <num_atoms_heavy>  (12) 
26

>  <num_torsions>  (12) 
3

>  <pose>  (12) 
[17.574298154688552, 14.770379090618192, 22.34624735178486, -3.5307550133642818, -1.127492714663824, -5.003121540732347, -3.0618785141149103, -6.510595412721777, -0.09169474873984756]

>  <energy>  (12) 
-1036.7075524014506

>  <inter_energy>  (12) 
-1029.4590953321892

>  <intra_energy>  (12) 
5.265179193370282

>  <rmsd>  (12) 
0.542147

>  <sdf_rank>  (12) 
0

$$$$

     RDKit          3D

 38 41  0  0  0  0  0  0  0  0999 V2000
   24.9021   10.7079   20.5438 C   0  0  0  0  0  0  0  0  0  0  0  0
   24.8879   11.9969   20.0139 C   0  0  0  0  0  0  0  0  0  0  0  0
   23.7436   12.8181   20.1643 C   0  0  0  0  0  0  0  0  0  0  0  0
   22.5709   12.4007   20.8453 C   0  0  0  0  0  0  0  0  0  0  0  0
   22.6502   11.0847   21.4057 C   0  0  0  0  0  0  0  0  0  0  0  0
   23.7702   10.2555   21.2463 C   0  0  0  0  0  0  0  0  0  0  0  0
   21.3336   13.2812   21.0759 C   0  0  0  0  0  0  0  0  0  0  0  0
   21.2027   14.5616   20.5144 C   0  0  0  0  0  0  0  0  0  0  0  0
   20.0700   15.4006   20.7294 C   0  0  0  0  0  0  0  0  0  0  0  0
   19.2533   13.5712   22.1448 C   0  0  0  0  0  0  0  0  0  0  0  0
   18.0423   13.3358   22.9620 C   0  0  0  0  0  0  0  0  0  0  0  0
   17.3064   14.4781   22.8067 C   0  0  0  0  0  0  0  0  0  0  0  0
   15.9723   14.8613   23.4337 C   0  0  2  0  0  0  0  0  0  0  0  0
   17.7219   12.1155   23.6991 C   0  0  0  0  0  0  0  0  0  0  0  0
   18.6349   11.6377   24.6899 C   0  0  0  0  0  0  0  0  0  0  0  0
   18.3990   10.4584   25.4359 C   0  0  0  0  0  0  0  0  0  0  0  0
   17.2330    9.7112   25.2019 C   0  0  0  0  0  0  0  0  0  0  0  0
   16.3363   10.1363   24.1878 C   0  0  0  0  0  0  0  0  0  0  0  0
   16.5820   11.3189   23.4495 C   0  0  0  0  0  0  0  0  0  0  0  0
   15.5664   16.0212   22.9082 F   0  0  0  0  0  0  0  0  0  0  0  0
   16.1063   14.9812   24.7598 F   0  0  0  0  0  0  0  0  0  0  0  0
   15.0121   13.9127   23.2100 F   0  0  0  0  0  0  0  0  0  0  0  0
   19.1012   14.8572   21.6063 N   0  0  0  0  0  0  0  0  0  0  0  0
   20.3307   12.8175   21.9095 N   0  0  0  0  0  0  0  0  0  0  0  0
   17.8989   15.3908   22.0043 N   0  0  0  0  0  0  0  0  0  0  0  0
   19.8163   16.5292   20.3048 O   0  0  0  0  0  0  0  0  0  0  0  0
   25.7800   10.0578   20.4155 H   0  0  0  0  0  0  0  0  0  0  0  0
   25.7689   12.3780   19.4767 H   0  0  0  0  0  0  0  0  0  0  0  0
   23.7653   13.8293   19.7319 H   0  0  0  0  0  0  0  0  0  0  0  0
   21.7954   10.7080   21.9865 H   0  0  0  0  0  0  0  0  0  0  0  0
   23.7636    9.2422   21.6744 H   0  0  0  0  0  0  0  0  0  0  0  0
   22.0732   15.1349   20.8658 H   0  0  0  0  0  0  0  0  0  0  0  0
   21.0921   14.3190   19.4472 H   0  0  0  0  0  0  0  0  0  0  0  0
   19.5559   12.2084   24.8797 H   0  0  0  0  0  0  0  0  0  0  0  0
   19.1244   10.1290   26.1944 H   0  0  0  0  0  0  0  0  0  0  0  0
   17.0183    8.8104   25.7956 H   0  0  0  0  0  0  0  0  0  0  0  0
   15.4382    9.5388   23.9724 H   0  0  0  0  0  0  0  0  0  0  0  0
   15.8718   11.6235   22.6666 H   0  0  0  0  0  0  0  0  0  0  0  0
  1  2  2  0
  1  6  1  0
  2  3  1  0
  3  4  2  0
  4  5  1  0
  4  7  1  0
  5  6  2  0
  7  8  1  0
  7 24  2  0
  8  9  1  0
  9 23  1  0
  9 26  2  0
 10 11  2  0
 10 23  1  0
 10 24  1  0
 11 12  1  0
 11 14  1  0
 12 13  1  0
 12 25  2  0
 13 20  1  6
 13 21  1  0
 13 22  1  0
 14 15  2  0
 14 19  1  0
 15 16  1  0
 16 17  2  0
 17 18  1  0
 18 19  2  0
 23 25  1  0
  1 27  1  0
  2 28  1  0
  3 29  1  0
  5 30  1  0
  6 31  1  0
  8 32  1  0
  8 33  1  0
 15 34  1  0
 16 35  1  0
 17 36  1  0
 18 37  1  0
 19 38  1  0
M  END
>  <filename_input>  (13) 
8EX2_Q2Q_docked.sdf

>  <pdb_id>  (13) 
8EX2_Q2Q

>  <pose_rank>  (13) 
12

>  <num_atoms_heavy>  (13) 
26

>  <num_torsions>  (13) 
3

>  <pose>  (13) 
[21.33360172359064, 13.281203572808801, 21.07590716343866, -0.1503845937066624, -2.6138549777407043, 1.602110076766056, -0.24945731660317297, 1.7795681937180357, -2.2276642818280115]

>  <energy>  (13) 
-963.0159530448582

>  <inter_energy>  (13) 
-966.1087642188662

>  <intra_energy>  (13) 
7.17599220894555

>  <rmsd>  (13) 
6.44678

>  <sdf_rank>  (13) 
0

$$$$

     RDKit          3D

 38 41  0  0  0  0  0  0  0  0999 V2000
   24.9611   10.7965   20.5608 C   0  0  0  0  0  0  0  0  0  0  0  0
   24.8570   12.0136   19.8896 C   0  0  0  0  0  0  0  0  0  0  0  0
   23.6915   12.8069   20.0265 C   0  0  0  0  0  0  0  0  0  0  0  0
   22.5856   12.4317   20.8324 C   0  0  0  0  0  0  0  0  0  0  0  0
   22.7579   11.1936   21.5322 C   0  0  0  0  0  0  0  0  0  0  0  0
   23.8989   10.3905   21.3890 C   0  0  0  0  0  0  0  0  0  0  0  0
   21.3302   13.2900   21.0486 C   0  0  0  0  0  0  0  0  0  0  0  0
   21.1626   14.5477   20.4469 C   0  0  0  0  0  0  0  0  0  0  0  0
   20.0126   15.3665   20.6476 C   0  0  0  0  0  0  0  0  0  0  0  0
   19.2555   13.5663   22.1319 C   0  0  0  0  0  0  0  0  0  0  0  0
   18.0596   13.3297   22.9707 C   0  0  0  0  0  0  0  0  0  0  0  0
   17.2950   14.4486   22.7867 C   0  0  0  0  0  0  0  0  0  0  0  0
   15.9591   14.8209   23.4164 C   0  0  2  0  0  0  0  0  0  0  0  0
   17.7766   12.1273   23.7512 C   0  0  0  0  0  0  0  0  0  0  0  0
   18.6037   11.8124   24.8739 C   0  0  0  0  0  0  0  0  0  0  0  0
   18.3988   10.6606   25.6702 C   0  0  0  0  0  0  0  0  0  0  0  0
   17.3533    9.7769   25.3558 C   0  0  0  0  0  0  0  0  0  0  0  0
   16.5507   10.0399   24.2157 C   0  0  0  0  0  0  0  0  0  0  0  0
   16.7639   11.1967   23.4279 C   0  0  0  0  0  0  0  0  0  0  0  0
   15.5351   15.9694   22.8805 F   0  0  0  0  0  0  0  0  0  0  0  0
   16.0983   14.9572   24.7405 F   0  0  0  0  0  0  0  0  0  0  0  0
   15.0105   13.8572   23.2082 F   0  0  0  0  0  0  0  0  0  0  0  0
   19.0668   14.8298   21.5533 N   0  0  0  0  0  0  0  0  0  0  0  0
   20.3480   12.8308   21.9087 N   0  0  0  0  0  0  0  0  0  0  0  0
   17.8566   15.3479   21.9477 N   0  0  0  0  0  0  0  0  0  0  0  0
   19.7273   16.4742   20.1891 O   0  0  0  0  0  0  0  0  0  0  0  0
   25.8553   10.1665   20.4452 H   0  0  0  0  0  0  0  0  0  0  0  0
   25.6832   12.3595   19.2511 H   0  0  0  0  0  0  0  0  0  0  0  0
   23.6413   13.7609   19.4812 H   0  0  0  0  0  0  0  0  0  0  0  0
   21.9604   10.8581   22.2116 H   0  0  0  0  0  0  0  0  0  0  0  0
   23.9638    9.4345   21.9293 H   0  0  0  0  0  0  0  0  0  0  0  0
   22.0230   15.1527   20.7689 H   0  0  0  0  0  0  0  0  0  0  0  0
   21.0460   14.2673   19.3896 H   0  0  0  0  0  0  0  0  0  0  0  0
   19.4308   12.4914   25.1286 H   0  0  0  0  0  0  0  0  0  0  0  0
   19.0543   10.4585   26.5301 H   0  0  0  0  0  0  0  0  0  0  0  0
   17.1598    8.8947   25.9836 H   0  0  0  0  0  0  0  0  0  0  0  0
   15.7520    9.3355   23.9403 H   0  0  0  0  0  0  0  0  0  0  0  0
   16.1290   11.3743   22.5474 H   0  0  0  0  0  0  0  0  0  0  0  0
  1  2  2  0
  1  6  1  0
  2  3  1  0
  3  4  2  0
  4  5  1  0
  4  7  1  0
  5  6  2  0
  7  8  1  0
  7 24  2  0
  8  9  1  0
  9 23  1  0
  9 26  2  0
 10 11  2  0
 10 23  1  0
 10 24  1  0
 11 12  1  0
 11 14  1  0
 12 13  1  0
 12 25  2  0
 13 20  1  6
 13 21  1  0
 13 22  1  0
 14 15  2  0
 14 19  1  0
 15 16  1  0
 16 17  2  0
 17 18  1  0
 18 19  2  0
 23 25  1  0
  1 27  1  0
  2 28  1  0
  3 29  1  0
  5 30  1  0
  6 31  1  0
  8 32  1  0
  8 33  1  0
 15 34  1  0
 16 35  1  0
 17 36  1  0
 18 37  1  0
 19 38  1  0
M  END
>  <filename_input>  (14) 
8EX2_Q2Q_docked.sdf

>  <pdb_id>  (14) 
8EX2_Q2Q

>  <pose_rank>  (14) 
13

>  <num_atoms_heavy>  (14) 
26

>  <num_torsions>  (14) 
3

>  <pose>  (14) 
[21.330243664295697, 13.290048370142854, 21.048563178599842, -0.11216933100849445, -2.591381836951502, 1.6492271538745955, -0.3514564025029193, 1.939418807599426, -2.252808537344761]

>  <energy>  (14) 
-963.7166337085995

>  <inter_energy>  (14) 
-971.126217640861

>  <intra_energy>  (14) 
2.139957867860812

>  <rmsd>  (14) 
6.43523

>  <sdf_rank>  (14) 
0

$$$$

     RDKit          3D

 38 41  0  0  0  0  0  0  0  0999 V2000
   14.3366   15.0734   24.3745 C   0  0  0  0  0  0  0  0  0  0  0  0
   15.5094   14.7353   25.0474 C   0  0  0  0  0  0  0  0  0  0  0  0
   16.7559   14.7810   24.3762 C   0  0  0  0  0  0  0  0  0  0  0  0
   16.8938   15.1644   23.0170 C   0  0  0  0  0  0  0  0  0  0  0  0
   15.6660   15.5406   22.3821 C   0  0  0  0  0  0  0  0  0  0  0  0
   14.4238   15.4805   23.0307 C   0  0  0  0  0  0  0  0  0  0  0  0
   18.2324   15.2788   22.2724 C   0  0  0  0  0  0  0  0  0  0  0  0
   18.5256   16.3441   21.4058 C   0  0  0  0  0  0  0  0  0  0  0  0
   19.7552   16.4601   20.6931 C   0  0  0  0  0  0  0  0  0  0  0  0
   20.3308   14.3318   21.7682 C   0  0  0  0  0  0  0  0  0  0  0  0
   21.5007   13.4259   21.7450 C   0  0  0  0  0  0  0  0  0  0  0  0
   22.3758   14.0313   20.8858 C   0  0  0  0  0  0  0  0  0  0  0  0
   23.7465   13.5642   20.4141 C   0  0  2  0  0  0  0  0  0  0  0  0
   21.6623   12.2042   22.5301 C   0  0  0  0  0  0  0  0  0  0  0  0
   21.4568   12.2500   23.9440 C   0  0  0  0  0  0  0  0  0  0  0  0
   21.6058   11.1117   24.7716 C   0  0  0  0  0  0  0  0  0  0  0  0
   21.9775    9.8833   24.2010 C   0  0  0  0  0  0  0  0  0  0  0  0
   22.2376    9.8235   22.8075 C   0  0  0  0  0  0  0  0  0  0  0  0
   22.0831   10.9685   21.9895 C   0  0  0  0  0  0  0  0  0  0  0  0
   24.5217   13.3548   21.4824 F   0  0  0  0  0  0  0  0  0  0  0  0
   24.2991   14.4903   19.6217 F   0  0  0  0  0  0  0  0  0  0  0  0
   23.6695   12.4070   19.6882 F   0  0  0  0  0  0  0  0  0  0  0  0
   20.6457   15.3777   20.8886 N   0  0  0  0  0  0  0  0  0  0  0  0
   19.1669   14.2687   22.4206 N   0  0  0  0  0  0  0  0  0  0  0  0
   21.9052   15.1900   20.3720 N   0  0  0  0  0  0  0  0  0  0  0  0
   20.1508   17.3283   19.9131 O   0  0  0  0  0  0  0  0  0  0  0  0
   13.3628   15.0230   24.8837 H   0  0  0  0  0  0  0  0  0  0  0  0
   15.4668   14.4318   26.1038 H   0  0  0  0  0  0  0  0  0  0  0  0
   17.6618   14.5058   24.9363 H   0  0  0  0  0  0  0  0  0  0  0  0
   15.6988   15.8920   21.3402 H   0  0  0  0  0  0  0  0  0  0  0  0
   13.5095   15.7541   22.4837 H   0  0  0  0  0  0  0  0  0  0  0  0
   17.7342   16.3374   20.6418 H   0  0  0  0  0  0  0  0  0  0  0  0
   18.6065   17.1822   22.1136 H   0  0  0  0  0  0  0  0  0  0  0  0
   21.1719   13.2066   24.4065 H   0  0  0  0  0  0  0  0  0  0  0  0
   21.4315   11.1885   25.8550 H   0  0  0  0  0  0  0  0  0  0  0  0
   22.0656    8.9816   24.8248 H   0  0  0  0  0  0  0  0  0  0  0  0
   22.5636    8.8745   22.3566 H   0  0  0  0  0  0  0  0  0  0  0  0
   22.2947   10.8948   20.9125 H   0  0  0  0  0  0  0  0  0  0  0  0
  1  2  2  0
  1  6  1  0
  2  3  1  0
  3  4  2  0
  4  5  1  0
  4  7  1  0
  5  6  2  0
  7  8  1  0
  7 24  2  0
  8  9  1  0
  9 23  1  0
  9 26  2  0
 10 11  2  0
 10 23  1  0
 10 24  1  0
 11 12  1  0
 11 14  1  0
 12 13  1  0
 12 25  2  0
 13 20  1  1
 13 21  1  0
 13 22  1  0
 14 15  2  0
 14 19  1  0
 15 16  1  0
 16 17  2  0
 17 18  1  0
 18 19  2  0
 23 25  1  0
  1 27  1  0
  2 28  1  0
  3 29  1  0
  5 30  1  0
  6 31  1  0
  8 32  1  0
  8 33  1  0
 15 34  1  0
 16 35  1  0
 17 36  1  0
 18 37  1  0
 19 38  1  0
M  END
>  <filename_input>  (15) 
8EX2_Q2Q_docked.sdf

>  <pdb_id>  (15) 
8EX2_Q2Q

>  <pose_rank>  (15) 
14

>  <num_atoms_heavy>  (15) 
26

>  <num_torsions>  (15) 
3

>  <pose>  (15) 
[18.232389422801653, 15.278840020515078, 22.272397602587123, 1.517033081976421, -0.07702296851141102, 6.082502978494407, -2.7556225919145456, -6.411568830907722, -0.16438714461175846]

>  <energy>  (15) 
-904.1917388224781

>  <inter_energy>  (15) 
-905.7996396136465

>  <intra_energy>  (15) 
8.520440336646969

>  <rmsd>  (15) 
0.940225

>  <sdf_rank>  (15) 
0

$$$$

     RDKit          3D

 38 41  0  0  0  0  0  0  0  0999 V2000
   14.0894   13.6068   24.5058 C   0  0  0  0  0  0  0  0  0  0  0  0
   15.2551   12.9662   24.9220 C   0  0  0  0  0  0  0  0  0  0  0  0
   16.4716   13.1750   24.2269 C   0  0  0  0  0  0  0  0  0  0  0  0
   16.5855   14.0254   23.0969 C   0  0  0  0  0  0  0  0  0  0  0  0
   15.3700   14.6910   22.7337 C   0  0  0  0  0  0  0  0  0  0  0  0
   14.1557   14.4769   23.4023 C   0  0  0  0  0  0  0  0  0  0  0  0
   17.8965   14.3191   22.3523 C   0  0  0  0  0  0  0  0  0  0  0  0
   18.0693   15.4568   21.5475 C   0  0  0  0  0  0  0  0  0  0  0  0
   19.2720   15.7391   20.8357 C   0  0  0  0  0  0  0  0  0  0  0  0
   20.0744   13.6228   21.7813 C   0  0  0  0  0  0  0  0  0  0  0  0
   21.3303   12.8444   21.6984 C   0  0  0  0  0  0  0  0  0  0  0  0
   22.1288   13.5847   20.8709 C   0  0  0  0  0  0  0  0  0  0  0  0
   23.5344   13.2885   20.3647 C   0  0  2  0  0  0  0  0  0  0  0  0
   21.6251   11.6027   22.4100 C   0  0  0  0  0  0  0  0  0  0  0  0
   21.3511   11.5181   23.8105 C   0  0  0  0  0  0  0  0  0  0  0  0
   21.6198   10.3539   24.5690 C   0  0  0  0  0  0  0  0  0  0  0  0
   22.1848    9.2319   23.9409 C   0  0  0  0  0  0  0  0  0  0  0  0
   22.5137    9.3087   22.5629 C   0  0  0  0  0  0  0  0  0  0  0  0
   22.2382   10.4780   21.8140 C   0  0  0  0  0  0  0  0  0  0  0  0
   24.2121   12.6496   21.3232 F   0  0  0  0  0  0  0  0  0  0  0  0
   24.1573   14.4294   20.0462 F   0  0  0  0  0  0  0  0  0  0  0  0
   23.5182   12.5107   19.2392 F   0  0  0  0  0  0  0  0  0  0  0  0
   20.2706   14.7442   20.9624 N   0  0  0  0  0  0  0  0  0  0  0  0
   18.9309   13.4033   22.4358 N   0  0  0  0  0  0  0  0  0  0  0  0
   21.5365   14.7166   20.4283 N   0  0  0  0  0  0  0  0  0  0  0  0
   19.5678   16.6866   20.1053 O   0  0  0  0  0  0  0  0  0  0  0  0
   13.1373   13.4356   25.0293 H   0  0  0  0  0  0  0  0  0  0  0  0
   15.2304   12.2957   25.7937 H   0  0  0  0  0  0  0  0  0  0  0  0
   17.3724   12.6521   24.5807 H   0  0  0  0  0  0  0  0  0  0  0  0
   15.3899   15.4011   21.8938 H   0  0  0  0  0  0  0  0  0  0  0  0
   13.2469   14.9940   23.0606 H   0  0  0  0  0  0  0  0  0  0  0  0
   17.2737   15.4129   20.7892 H   0  0  0  0  0  0  0  0  0  0  0  0
   18.0726   16.2568   22.3026 H   0  0  0  0  0  0  0  0  0  0  0  0
   20.9149   12.3912   24.3179 H   0  0  0  0  0  0  0  0  0  0  0  0
   21.3875   10.3280   25.6439 H   0  0  0  0  0  0  0  0  0  0  0  0
   22.3695    8.3080   24.5086 H   0  0  0  0  0  0  0  0  0  0  0  0
   22.9891    8.4480   22.0697 H   0  0  0  0  0  0  0  0  0  0  0  0
   22.5067   10.5116   20.7477 H   0  0  0  0  0  0  0  0  0  0  0  0
  1  2  2  0
  1  6  1  0
  2  3  1  0
  3  4  2  0
  4  5  1  0
  4  7  1  0
  5  6  2  0
  7  8  1  0
  7 24  2  0
  8  9  1  0
  9 23  1  0
  9 26  2  0
 10 11  2  0
 10 23  1  0
 10 24  1  0
 11 12  1  0
 11 14  1  0
 12 13  1  0
 12 25  2  0
 13 20  1  1
 13 21  1  0
 13 22  1  0
 14 15  2  0
 14 19  1  0
 15 16  1  0
 16 17  2  0
 17 18  1  0
 18 19  2  0
 23 25  1  0
  1 27  1  0
  2 28  1  0
  3 29  1  0
  5 30  1  0
  6 31  1  0
  8 32  1  0
  8 33  1  0
 15 34  1  0
 16 35  1  0
 17 36  1  0
 18 37  1  0
 19 38  1  0
M  END
>  <filename_input>  (16) 
8EX2_Q2Q_docked.sdf

>  <pdb_id>  (16) 
8EX2_Q2Q

>  <pose_rank>  (16) 
15

>  <num_atoms_heavy>  (16) 
26

>  <num_torsions>  (16) 
3

>  <pose>  (16) 
[17.896505528661873, 14.319134140084131, 22.352281815847615, -3.2150103819799605, -0.5461140560885275, -5.247563584966079, -3.1271298491728414, -6.3414560211518065, 0.2138584204347444]

>  <energy>  (16) 
-1061.5885827216002

>  <inter_energy>  (16) 
-1078.7681181216553

>  <intra_energy>  (16) 
18.154325595018122

>  <rmsd>  (16) 
0.459201

>  <sdf_rank>  (16) 
0

$$$$

     RDKit          3D

 38 41  0  0  0  0  0  0  0  0999 V2000
   24.0060    8.9375   21.9693 C   0  0  0  0  0  0  0  0  0  0  0  0
   24.2438   10.0954   21.2310 C   0  0  0  0  0  0  0  0  0  0  0  0
   23.2698   11.1226   21.1807 C   0  0  0  0  0  0  0  0  0  0  0  0
   22.0255   11.0484   21.8586 C   0  0  0  0  0  0  0  0  0  0  0  0
   21.8461    9.8578   22.6350 C   0  0  0  0  0  0  0  0  0  0  0  0
   22.7950    8.8257   22.6765 C   0  0  0  0  0  0  0  0  0  0  0  0
   20.9695   12.1637   21.8724 C   0  0  0  0  0  0  0  0  0  0  0  0
   21.2023   13.4310   21.3142 C   0  0  0  0  0  0  0  0  0  0  0  0
   20.2415   14.4844   21.3311 C   0  0  0  0  0  0  0  0  0  0  0  0
   18.8315   12.8888   22.5489 C   0  0  0  0  0  0  0  0  0  0  0  0
   17.4704   12.9195   23.1288 C   0  0  0  0  0  0  0  0  0  0  0  0
   17.0196   14.1820   22.8580 C   0  0  0  0  0  0  0  0  0  0  0  0
   15.6987   14.8388   23.2371 C   0  0  2  0  0  0  0  0  0  0  0  0
   16.7834   11.8055   23.7784 C   0  0  0  0  0  0  0  0  0  0  0  0
   17.5557   10.7667   24.3853 C   0  0  0  0  0  0  0  0  0  0  0  0
   16.9623    9.6512   25.0228 C   0  0  0  0  0  0  0  0  0  0  0  0
   15.5629    9.5390   25.0635 C   0  0  0  0  0  0  0  0  0  0  0  0
   14.7750   10.5303   24.4235 C   0  0  0  0  0  0  0  0  0  0  0  0
   15.3800   11.6428   23.7907 C   0  0  0  0  0  0  0  0  0  0  0  0
   15.3613   15.7108   22.2821 F   0  0  0  0  0  0  0  0  0  0  0  0
   15.8203   15.4695   24.4111 F   0  0  0  0  0  0  0  0  0  0  0  0
   14.6935   13.9210   23.3751 F   0  0  0  0  0  0  0  0  0  0  0  0
   19.0409   14.1664   22.0095 N   0  0  0  0  0  0  0  0  0  0  0  0
   19.7599   11.9295   22.5032 N   0  0  0  0  0  0  0  0  0  0  0  0
   17.9186   14.9388   22.1894 N   0  0  0  0  0  0  0  0  0  0  0  0
   20.3008   15.6308   20.8829 O   0  0  0  0  0  0  0  0  0  0  0  0
   24.7499    8.1277   21.9986 H   0  0  0  0  0  0  0  0  0  0  0  0
   25.1917   10.2121   20.6852 H   0  0  0  0  0  0  0  0  0  0  0  0
   23.4888   12.0222   20.5868 H   0  0  0  0  0  0  0  0  0  0  0  0
   20.9238    9.7483   23.2244 H   0  0  0  0  0  0  0  0  0  0  0  0
   22.5904    7.9207   23.2673 H   0  0  0  0  0  0  0  0  0  0  0  0
   22.0920   13.8266   21.8259 H   0  0  0  0  0  0  0  0  0  0  0  0
   21.2401   13.1906   20.2414 H   0  0  0  0  0  0  0  0  0  0  0  0
   18.6530   10.8372   24.3556 H   0  0  0  0  0  0  0  0  0  0  0  0
   17.5932    8.8769   25.4837 H   0  0  0  0  0  0  0  0  0  0  0  0
   15.0851    8.6955   25.5834 H   0  0  0  0  0  0  0  0  0  0  0  0
   13.6793   10.4332   24.4190 H   0  0  0  0  0  0  0  0  0  0  0  0
   14.7454   12.3950   23.2992 H   0  0  0  0  0  0  0  0  0  0  0  0
  1  2  2  0
  1  6  1  0
  2  3  1  0
  3  4  2  0
  4  5  1  0
  4  7  1  0
  5  6  2  0
  7  8  1  0
  7 24  2  0
  8  9  1  0
  9 23  1  0
  9 26  2  0
 10 11  2  0
 10 23  1  0
 10 24  1  0
 11 12  1  0
 11 14  1  0
 12 13  1  0
 12 25  2  0
 13 20  1  6
 13 21  1  0
 13 22  1  0
 14 15  2  0
 14 19  1  0
 15 16  1  0
 16 17  2  0
 17 18  1  0
 18 19  2  0
 23 25  1  0
  1 27  1  0
  2 28  1  0
  3 29  1  0
  5 30  1  0
  6 31  1  0
  8 32  1  0
  8 33  1  0
 15 34  1  0
 16 35  1  0
 17 36  1  0
 18 37  1  0
 19 38  1  0
M  END
>  <filename_input>  (17) 
8EX2_Q2Q_docked.sdf

>  <pdb_id>  (17) 
8EX2_Q2Q

>  <pose_rank>  (17) 
16

>  <num_atoms_heavy>  (17) 
26

>  <num_torsions>  (17) 
3

>  <pose>  (17) 
[20.96947619131905, 12.163714298435742, 21.872407709893082, -0.5694466554018492, -2.6219668067916024, 1.5936609394470251, -0.47225728652689597, 1.2196218790711808, -1.768788655226795]

>  <energy>  (17) 
-704.6414570415658

>  <inter_energy>  (17) 
-746.8240136994712

>  <intra_energy>  (17) 
52.62433620931053

>  <rmsd>  (17) 
6.59994

>  <sdf_rank>  (17) 
0

$$$$

     RDKit          3D

 38 41  0  0  0  0  0  0  0  0999 V2000
   14.5851   13.3315   24.9887 C   0  0  0  0  0  0  0  0  0  0  0  0
   15.8614   13.1125   25.5040 C   0  0  0  0  0  0  0  0  0  0  0  0
   17.0058   13.3735   24.7111 C   0  0  0  0  0  0  0  0  0  0  0  0
   16.9354   13.8629   23.3812 C   0  0  0  0  0  0  0  0  0  0  0  0
   15.6044   14.1096   22.9124 C   0  0  0  0  0  0  0  0  0  0  0  0
   14.4635   13.8364   23.6812 C   0  0  0  0  0  0  0  0  0  0  0  0
   18.1532   14.2095   22.5115 C   0  0  0  0  0  0  0  0  0  0  0  0
   18.1772   15.3219   21.6549 C   0  0  0  0  0  0  0  0  0  0  0  0
   19.2911   15.6514   20.8279 C   0  0  0  0  0  0  0  0  0  0  0  0
   20.3148   13.6318   21.7713 C   0  0  0  0  0  0  0  0  0  0  0  0
   21.6084   12.9331   21.6029 C   0  0  0  0  0  0  0  0  0  0  0  0
   22.2793   13.6885   20.6811 C   0  0  0  0  0  0  0  0  0  0  0  0
   23.6519   13.4628   20.0609 C   0  0  2  0  0  0  0  0  0  0  0  0
   22.0478   11.7432   22.3282 C   0  0  0  0  0  0  0  0  0  0  0  0
   21.5224   11.4865   23.6327 C   0  0  0  0  0  0  0  0  0  0  0  0
   21.9084   10.3619   24.4003 C   0  0  0  0  0  0  0  0  0  0  0  0
   22.8487    9.4571   23.8807 C   0  0  0  0  0  0  0  0  0  0  0  0
   23.4234    9.7173   22.6099 C   0  0  0  0  0  0  0  0  0  0  0  0
   23.0278   10.8446   21.8504 C   0  0  0  0  0  0  0  0  0  0  0  0
   23.5988   12.3802   19.2789 F   0  0  0  0  0  0  0  0  0  0  0  0
   24.5667   13.2890   21.0221 F   0  0  0  0  0  0  0  0  0  0  0  0
   24.0550   14.5331   19.3101 F   0  0  0  0  0  0  0  0  0  0  0  0
   20.3620   14.7289   20.8990 N   0  0  0  0  0  0  0  0  0  0  0  0
   19.2505   13.3663   22.5336 N   0  0  0  0  0  0  0  0  0  0  0  0
   21.5751   14.7609   20.2542 N   0  0  0  0  0  0  0  0  0  0  0  0
   19.4568   16.5851   20.0409 O   0  0  0  0  0  0  0  0  0  0  0  0
   13.6912   13.1140   25.5918 H   0  0  0  0  0  0  0  0  0  0  0  0
   15.9805   12.7354   26.5304 H   0  0  0  0  0  0  0  0  0  0  0  0
   17.9981   13.1876   25.1480 H   0  0  0  0  0  0  0  0  0  0  0  0
   15.4712   14.5317   21.9053 H   0  0  0  0  0  0  0  0  0  0  0  0
   13.4646   14.0187   23.2581 H   0  0  0  0  0  0  0  0  0  0  0  0
   17.3231   15.1957   20.9734 H   0  0  0  0  0  0  0  0  0  0  0  0
   18.1926   16.1507   22.3779 H   0  0  0  0  0  0  0  0  0  0  0  0
   20.7902   12.1898   24.0560 H   0  0  0  0  0  0  0  0  0  0  0  0
   21.4747   10.1974   25.3977 H   0  0  0  0  0  0  0  0  0  0  0  0
   23.1350    8.5606   24.4502 H   0  0  0  0  0  0  0  0  0  0  0  0
   24.1868    9.0340   22.2094 H   0  0  0  0  0  0  0  0  0  0  0  0
   23.4921   11.0243   20.8695 H   0  0  0  0  0  0  0  0  0  0  0  0
  1  2  2  0
  1  6  1  0
  2  3  1  0
  3  4  2  0
  4  5  1  0
  4  7  1  0
  5  6  2  0
  7  8  1  0
  7 24  2  0
  8  9  1  0
  9 23  1  0
  9 26  2  0
 10 11  2  0
 10 23  1  0
 10 24  1  0
 11 12  1  0
 11 14  1  0
 12 13  1  0
 12 25  2  0
 13 20  1  6
 13 21  1  0
 13 22  1  0
 14 15  2  0
 14 19  1  0
 15 16  1  0
 16 17  2  0
 17 18  1  0
 18 19  2  0
 23 25  1  0
  1 27  1  0
  2 28  1  0
  3 29  1  0
  5 30  1  0
  6 31  1  0
  8 32  1  0
  8 33  1  0
 15 34  1  0
 16 35  1  0
 17 36  1  0
 18 37  1  0
 19 38  1  0
M  END
>  <filename_input>  (18) 
8EX2_Q2Q_docked.sdf

>  <pdb_id>  (18) 
8EX2_Q2Q

>  <pose_rank>  (18) 
17

>  <num_atoms_heavy>  (18) 
26

>  <num_torsions>  (18) 
3

>  <pose>  (18) 
[18.15317270298769, 14.209497144610486, 22.511505334165243, -0.6596127720520412, -3.367308550549596, -5.0418122952154745, 3.466269912199884, 0.30632161683103065, -4.281617999057614]

>  <energy>  (18) 
-1014.3973596852074

>  <inter_energy>  (18) 
-1054.5596474990248

>  <intra_energy>  (18) 
28.087234911800802

>  <rmsd>  (18) 
0.851997

>  <sdf_rank>  (18) 
0

$$$$

     RDKit          3D

 38 41  0  0  0  0  0  0  0  0999 V2000
   13.7421   14.0694   24.7359 C   0  0  0  0  0  0  0  0  0  0  0  0
   14.9403   14.0143   25.4456 C   0  0  0  0  0  0  0  0  0  0  0  0
   16.1783   14.1228   24.7660 C   0  0  0  0  0  0  0  0  0  0  0  0
   16.2820   14.2925   23.3611 C   0  0  0  0  0  0  0  0  0  0  0  0
   15.0234   14.3834   22.6828 C   0  0  0  0  0  0  0  0  0  0  0  0
   13.7920   14.2577   23.3426 C   0  0  0  0  0  0  0  0  0  0  0  0
   17.6026   14.4690   22.5968 C   0  0  0  0  0  0  0  0  0  0  0  0
   17.8396   15.5557   21.7397 C   0  0  0  0  0  0  0  0  0  0  0  0
   19.0518   15.7291   21.0092 C   0  0  0  0  0  0  0  0  0  0  0  0
   19.7279   13.6118   22.0469 C   0  0  0  0  0  0  0  0  0  0  0  0
   20.9319   12.7531   21.9933 C   0  0  0  0  0  0  0  0  0  0  0  0
   21.7684   13.4032   21.1283 C   0  0  0  0  0  0  0  0  0  0  0  0
   23.1485   12.9965   20.6288 C   0  0  2  0  0  0  0  0  0  0  0  0
   21.1543   11.5291   22.7595 C   0  0  0  0  0  0  0  0  0  0  0  0
   21.5944   11.6244   24.1163 C   0  0  0  0  0  0  0  0  0  0  0  0
   21.8415   10.4843   24.9176 C   0  0  0  0  0  0  0  0  0  0  0  0
   21.6612    9.2020   24.3738 C   0  0  0  0  0  0  0  0  0  0  0  0
   21.2747    9.0803   23.0141 C   0  0  0  0  0  0  0  0  0  0  0  0
   21.0283   10.2281   22.2230 C   0  0  0  0  0  0  0  0  0  0  0  0
   23.0958   12.8308   19.3036 F   0  0  0  0  0  0  0  0  0  0  0  0
   23.5324   11.8577   21.2177 F   0  0  0  0  0  0  0  0  0  0  0  0
   24.0954   13.9400   20.9206 F   0  0  0  0  0  0  0  0  0  0  0  0
   19.9872   14.6803   21.1763 N   0  0  0  0  0  0  0  0  0  0  0  0
   18.5783   13.4947   22.7169 N   0  0  0  0  0  0  0  0  0  0  0  0
   21.2445   14.5488   20.6373 N   0  0  0  0  0  0  0  0  0  0  0  0
   19.4002   16.6218   20.2345 O   0  0  0  0  0  0  0  0  0  0  0  0
   12.7773   13.9677   25.2543 H   0  0  0  0  0  0  0  0  0  0  0  0
   14.9245   13.8860   26.5380 H   0  0  0  0  0  0  0  0  0  0  0  0
   17.1050   14.0731   25.3564 H   0  0  0  0  0  0  0  0  0  0  0  0
   15.0227   14.5595   21.5969 H   0  0  0  0  0  0  0  0  0  0  0  0
   12.8569   14.3068   22.7654 H   0  0  0  0  0  0  0  0  0  0  0  0
   17.0366   15.5274   20.9884 H   0  0  0  0  0  0  0  0  0  0  0  0
   17.8991   16.3875   22.4572 H   0  0  0  0  0  0  0  0  0  0  0  0
   21.7467   12.6219   24.5542 H   0  0  0  0  0  0  0  0  0  0  0  0
   22.1729   10.6018   25.9600 H   0  0  0  0  0  0  0  0  0  0  0  0
   21.8171    8.3059   24.9925 H   0  0  0  0  0  0  0  0  0  0  0  0
   21.1651    8.0805   22.5686 H   0  0  0  0  0  0  0  0  0  0  0  0
   20.7331   10.1048   21.1705 H   0  0  0  0  0  0  0  0  0  0  0  0
  1  2  2  0
  1  6  1  0
  2  3  1  0
  3  4  2  0
  4  5  1  0
  4  7  1  0
  5  6  2  0
  7  8  1  0
  7 24  2  0
  8  9  1  0
  9 23  1  0
  9 26  2  0
 10 11  2  0
 10 23  1  0
 10 24  1  0
 11 12  1  0
 11 14  1  0
 12 13  1  0
 12 25  2  0
 13 20  1  6
 13 21  1  0
 13 22  1  0
 14 15  2  0
 14 19  1  0
 15 16  1  0
 16 17  2  0
 17 18  1  0
 18 19  2  0
 23 25  1  0
  1 27  1  0
  2 28  1  0
  3 29  1  0
  5 30  1  0
  6 31  1  0
  8 32  1  0
  8 33  1  0
 15 34  1  0
 16 35  1  0
 17 36  1  0
 18 37  1  0
 19 38  1  0
M  END
>  <filename_input>  (19) 
8EX2_Q2Q_docked.sdf

>  <pdb_id>  (19) 
8EX2_Q2Q

>  <pose_rank>  (19) 
18

>  <num_atoms_heavy>  (19) 
26

>  <num_torsions>  (19) 
3

>  <pose>  (19) 
[17.602600115963302, 14.469018864359489, 22.596838219930113, -1.8258887222360791, -3.189811687248936, -5.056508512089774, 3.734324055763791, -0.6403254480381213, -3.4105328004413438]

>  <energy>  (19) 
-1035.3311226537362

>  <inter_energy>  (19) 
-1039.02929565752

>  <intra_energy>  (19) 
10.812373468253558

>  <rmsd>  (19) 
0.57064

>  <sdf_rank>  (19) 
0

$$$$

     RDKit          3D

 38 41  0  0  0  0  0  0  0  0999 V2000
   25.5291   10.4816   21.1488 C   0  0  0  0  0  0  0  0  0  0  0  0
   25.6088   11.6183   20.3463 C   0  0  0  0  0  0  0  0  0  0  0  0
   24.5040   12.4989   20.2439 C   0  0  0  0  0  0  0  0  0  0  0  0
   23.2796   12.2936   20.9308 C   0  0  0  0  0  0  0  0  0  0  0  0
   23.2620   11.1347   21.7729 C   0  0  0  0  0  0  0  0  0  0  0  0
   24.3426   10.2454   21.8669 C   0  0  0  0  0  0  0  0  0  0  0  0
   22.0814   13.2536   20.8879 C   0  0  0  0  0  0  0  0  0  0  0  0
   22.0758   14.4198   20.1057 C   0  0  0  0  0  0  0  0  0  0  0  0
   20.9805   15.3318   20.0646 C   0  0  0  0  0  0  0  0  0  0  0  0
   19.9371   13.8169   21.6873 C   0  0  0  0  0  0  0  0  0  0  0  0
   18.6479   13.7814   22.4131 C   0  0  0  0  0  0  0  0  0  0  0  0
   17.9973   14.9094   21.9949 C   0  0  0  0  0  0  0  0  0  0  0  0
   16.6390   15.4543   22.4165 C   0  0  2  0  0  0  0  0  0  0  0  0
   18.1931   12.7248   23.3140 C   0  0  0  0  0  0  0  0  0  0  0  0
   18.9548   12.4314   24.4875 C   0  0  0  0  0  0  0  0  0  0  0  0
   18.5840   11.4157   25.4007 C   0  0  0  0  0  0  0  0  0  0  0  0
   17.4315   10.6509   25.1570 C   0  0  0  0  0  0  0  0  0  0  0  0
   16.6870   10.8880   23.9727 C   0  0  0  0  0  0  0  0  0  0  0  0
   17.0666   11.9083   23.0677 C   0  0  0  0  0  0  0  0  0  0  0  0
   16.4187   16.6061   21.7754 F   0  0  0  0  0  0  0  0  0  0  0  0
   16.6156   15.6548   23.7395 F   0  0  0  0  0  0  0  0  0  0  0  0
   15.6261   14.5826   22.1232 F   0  0  0  0  0  0  0  0  0  0  0  0
   19.9087   14.9935   20.9248 N   0  0  0  0  0  0  0  0  0  0  0  0
   20.9842   12.9876   21.6887 N   0  0  0  0  0  0  0  0  0  0  0  0
   18.7102   15.6403   21.1086 N   0  0  0  0  0  0  0  0  0  0  0  0
   20.8319   16.3781   19.4308 O   0  0  0  0  0  0  0  0  0  0  0  0
   26.3763    9.7836   21.2192 H   0  0  0  0  0  0  0  0  0  0  0  0
   26.5334   11.8326   19.7902 H   0  0  0  0  0  0  0  0  0  0  0  0
   24.6000   13.3855   19.6000 H   0  0  0  0  0  0  0  0  0  0  0  0
   22.3616   10.9334   22.3719 H   0  0  0  0  0  0  0  0  0  0  0  0
   24.2616    9.3551   22.5079 H   0  0  0  0  0  0  0  0  0  0  0  0
   22.9450   15.0078   20.4355 H   0  0  0  0  0  0  0  0  0  0  0  0
   22.0439   13.9983   19.0902 H   0  0  0  0  0  0  0  0  0  0  0  0
   19.8638   13.0173   24.6885 H   0  0  0  0  0  0  0  0  0  0  0  0
   19.1947   11.2265   26.2959 H   0  0  0  0  0  0  0  0  0  0  0  0
   17.1110    9.8799   25.8732 H   0  0  0  0  0  0  0  0  0  0  0  0
   15.8030   10.2708   23.7548 H   0  0  0  0  0  0  0  0  0  0  0  0
   16.4733   12.0684   22.1553 H   0  0  0  0  0  0  0  0  0  0  0  0
  1  2  2  0
  1  6  1  0
  2  3  1  0
  3  4  2  0
  4  5  1  0
  4  7  1  0
  5  6  2  0
  7  8  1  0
  7 24  2  0
  8  9  1  0
  9 23  1  0
  9 26  2  0
 10 11  2  0
 10 23  1  0
 10 24  1  0
 11 12  1  0
 11 14  1  0
 12 13  1  0
 12 25  2  0
 13 20  1  6
 13 21  1  0
 13 22  1  0
 14 15  2  0
 14 19  1  0
 15 16  1  0
 16 17  2  0
 17 18  1  0
 18 19  2  0
 23 25  1  0
  1 27  1  0
  2 28  1  0
  3 29  1  0
  5 30  1  0
  6 31  1  0
  8 32  1  0
  8 33  1  0
 15 34  1  0
 16 35  1  0
 17 36  1  0
 18 37  1  0
 19 38  1  0
M  END
>  <filename_input>  (20) 
8EX2_Q2Q_docked.sdf

>  <pdb_id>  (20) 
8EX2_Q2Q

>  <pose_rank>  (20) 
19

>  <num_atoms_heavy>  (20) 
26

>  <num_torsions>  (20) 
3

>  <pose>  (20) 
[22.081370885586786, 13.25364388204265, 20.88793923141231, -0.3057710345441257, -2.508373983738251, 1.8462154169643983, -0.3128934780291116, 1.8292808006785288, -2.3516602265000275]

>  <energy>  (20) 
-882.3535094757534

>  <inter_energy>  (20) 
-868.6434552859961

>  <intra_energy>  (20) 
3.5477149456399504

>  <rmsd>  (20) 
6.46739

>  <sdf_rank>  (20) 
0

$$$$

     RDKit          3D

 38 41  0  0  0  0  0  0  0  0999 V2000
   13.6685   14.1489   24.9564 C   0  0  0  0  0  0  0  0  0  0  0  0
   14.8469   13.7032   25.5524 C   0  0  0  0  0  0  0  0  0  0  0  0
   16.0774   13.7938   24.8567 C   0  0  0  0  0  0  0  0  0  0  0  0
   16.1933   14.3299   23.5481 C   0  0  0  0  0  0  0  0  0  0  0  0
   14.9620   14.8105   22.9956 C   0  0  0  0  0  0  0  0  0  0  0  0
   13.7349   14.7081   23.6672 C   0  0  0  0  0  0  0  0  0  0  0  0
   17.5161   14.4950   22.7849 C   0  0  0  0  0  0  0  0  0  0  0  0
   17.7594   15.5746   21.9206 C   0  0  0  0  0  0  0  0  0  0  0  0
   18.9737   15.7373   21.1910 C   0  0  0  0  0  0  0  0  0  0  0  0
   19.6384   13.6243   22.2447 C   0  0  0  0  0  0  0  0  0  0  0  0
   20.8386   12.7598   22.1991 C   0  0  0  0  0  0  0  0  0  0  0  0
   21.6795   13.4000   21.3310 C   0  0  0  0  0  0  0  0  0  0  0  0
   23.0586   12.9835   20.8368 C   0  0  2  0  0  0  0  0  0  0  0  0
   21.0540   11.5401   22.9744 C   0  0  0  0  0  0  0  0  0  0  0  0
   21.2834   11.6384   24.3820 C   0  0  0  0  0  0  0  0  0  0  0  0
   21.5109   10.5037   25.1966 C   0  0  0  0  0  0  0  0  0  0  0  0
   21.5239    9.2247   24.6164 C   0  0  0  0  0  0  0  0  0  0  0  0
   21.3502    9.1048   23.2133 C   0  0  0  0  0  0  0  0  0  0  0  0
   21.1212   10.2471   22.4090 C   0  0  0  0  0  0  0  0  0  0  0  0
   22.9575   11.8001   20.2239 F   0  0  0  0  0  0  0  0  0  0  0  0
   23.9077   12.8944   21.8673 F   0  0  0  0  0  0  0  0  0  0  0  0
   23.5829   13.8938   19.9603 F   0  0  0  0  0  0  0  0  0  0  0  0
   19.9040   14.6854   21.3670 N   0  0  0  0  0  0  0  0  0  0  0  0
   18.4871   13.5171   22.9135 N   0  0  0  0  0  0  0  0  0  0  0  0
   21.1615   14.5445   20.8311 N   0  0  0  0  0  0  0  0  0  0  0  0
   19.3274   16.6229   20.4106 O   0  0  0  0  0  0  0  0  0  0  0  0
   12.7065   14.0652   25.4831 H   0  0  0  0  0  0  0  0  0  0  0  0
   14.8212   13.2793   26.5671 H   0  0  0  0  0  0  0  0  0  0  0  0
   16.9881   13.4308   25.3556 H   0  0  0  0  0  0  0  0  0  0  0  0
   14.9798   15.2806   22.0012 H   0  0  0  0  0  0  0  0  0  0  0  0
   12.8160   15.0682   23.1814 H   0  0  0  0  0  0  0  0  0  0  0  0
   16.9576   15.5446   21.1681 H   0  0  0  0  0  0  0  0  0  0  0  0
   17.8216   16.4110   22.6322 H   0  0  0  0  0  0  0  0  0  0  0  0
   21.2830   12.6340   24.8498 H   0  0  0  0  0  0  0  0  0  0  0  0
   21.6765   10.6227   26.2775 H   0  0  0  0  0  0  0  0  0  0  0  0
   21.6665    8.3299   25.2400 H   0  0  0  0  0  0  0  0  0  0  0  0
   21.3940    8.1108   22.7442 H   0  0  0  0  0  0  0  0  0  0  0  0
   20.9932   10.1256   21.3233 H   0  0  0  0  0  0  0  0  0  0  0  0
  1  2  2  0
  1  6  1  0
  2  3  1  0
  3  4  2  0
  4  5  1  0
  4  7  1  0
  5  6  2  0
  7  8  1  0
  7 24  2  0
  8  9  1  0
  9 23  1  0
  9 26  2  0
 10 11  2  0
 10 23  1  0
 10 24  1  0
 11 12  1  0
 11 14  1  0
 12 13  1  0
 12 25  2  0
 13 20  1  6
 13 21  1  0
 13 22  1  0
 14 15  2  0
 14 19  1  0
 15 16  1  0
 16 17  2  0
 17 18  1  0
 18 19  2  0
 23 25  1  0
  1 27  1  0
  2 28  1  0
  3 29  1  0
  5 30  1  0
  6 31  1  0
  8 32  1  0
  8 33  1  0
 15 34  1  0
 16 35  1  0
 17 36  1  0
 18 37  1  0
 19 38  1  0
M  END
>  <filename_input>  (21) 
8EX2_Q2Q_docked.sdf

>  <pdb_id>  (21) 
8EX2_Q2Q

>  <pose_rank>  (21) 
20

>  <num_atoms_heavy>  (21) 
26

>  <num_torsions>  (21) 
3

>  <pose>  (21) 
[17.516054415205627, 14.494974047363016, 22.784897598091472, -0.5608509318854479, -3.5391940622569593, -5.129521836563474, 3.3991689287514206, -0.4676969978388965, -4.430478286391095]

>  <energy>  (21) 
-1007.9752543873533

>  <inter_energy>  (21) 
-1018.6695686315198

>  <intra_energy>  (21) 
1.1248944076909735

>  <rmsd>  (21) 
0.481157

>  <sdf_rank>  (21) 
0

$$$$

     RDKit          3D

 38 41  0  0  0  0  0  0  0  0999 V2000
   14.0822   14.1242   24.9486 C   0  0  0  0  0  0  0  0  0  0  0  0
   15.2760   13.8629   25.6185 C   0  0  0  0  0  0  0  0  0  0  0  0
   16.5131   13.9532   24.9345 C   0  0  0  0  0  0  0  0  0  0  0  0
   16.6202   14.3072   23.5646 C   0  0  0  0  0  0  0  0  0  0  0  0
   15.3698   14.6049   22.9320 C   0  0  0  0  0  0  0  0  0  0  0  0
   14.1376   14.4997   23.5940 C   0  0  0  0  0  0  0  0  0  0  0  0
   17.9451   14.4689   22.8044 C   0  0  0  0  0  0  0  0  0  0  0  0
   18.1933   15.5479   21.9407 C   0  0  0  0  0  0  0  0  0  0  0  0
   19.4095   15.7075   21.2138 C   0  0  0  0  0  0  0  0  0  0  0  0
   20.0664   13.5927   22.2690 C   0  0  0  0  0  0  0  0  0  0  0  0
   21.2644   12.7251   22.2261 C   0  0  0  0  0  0  0  0  0  0  0  0
   22.1089   13.3631   21.3599 C   0  0  0  0  0  0  0  0  0  0  0  0
   23.4880   12.9430   20.8688 C   0  0  2  0  0  0  0  0  0  0  0  0
   21.4749   11.5048   23.0018 C   0  0  0  0  0  0  0  0  0  0  0  0
   20.8814   11.3893   24.2971 C   0  0  0  0  0  0  0  0  0  0  0  0
   21.0494   10.2440   25.1114 C   0  0  0  0  0  0  0  0  0  0  0  0
   21.8327    9.1735   24.6495 C   0  0  0  0  0  0  0  0  0  0  0  0
   22.4747    9.2853   23.3892 C   0  0  0  0  0  0  0  0  0  0  0  0
   22.2973   10.4352   22.5826 C   0  0  0  0  0  0  0  0  0  0  0  0
   23.3575   11.8686   20.0846 F   0  0  0  0  0  0  0  0  0  0  0  0
   24.2783   12.6567   21.9101 F   0  0  0  0  0  0  0  0  0  0  0  0
   24.1020   13.9385   20.1588 F   0  0  0  0  0  0  0  0  0  0  0  0
   20.3367   14.6531   21.3919 N   0  0  0  0  0  0  0  0  0  0  0  0
   18.9133   13.4885   22.9352 N   0  0  0  0  0  0  0  0  0  0  0  0
   21.5951   14.5090   20.8589 N   0  0  0  0  0  0  0  0  0  0  0  0
   19.7674   16.5922   20.4343 O   0  0  0  0  0  0  0  0  0  0  0  0
   13.1164   14.0385   25.4683 H   0  0  0  0  0  0  0  0  0  0  0  0
   15.2576   13.5854   26.6828 H   0  0  0  0  0  0  0  0  0  0  0  0
   17.4362   13.7384   25.4927 H   0  0  0  0  0  0  0  0  0  0  0  0
   15.3762   14.9301   21.8812 H   0  0  0  0  0  0  0  0  0  0  0  0
   13.2062   14.7129   23.0489 H   0  0  0  0  0  0  0  0  0  0  0  0
   17.3931   15.5200   21.1864 H   0  0  0  0  0  0  0  0  0  0  0  0
   18.2560   16.3841   22.6525 H   0  0  0  0  0  0  0  0  0  0  0  0
   20.2707   12.2223   24.6755 H   0  0  0  0  0  0  0  0  0  0  0  0
   20.5696   10.1925   26.0998 H   0  0  0  0  0  0  0  0  0  0  0  0
   21.9467    8.2626   25.2556 H   0  0  0  0  0  0  0  0  0  0  0  0
   23.1188    8.4675   23.0339 H   0  0  0  0  0  0  0  0  0  0  0  0
   22.8096   10.4970   21.6111 H   0  0  0  0  0  0  0  0  0  0  0  0
  1  2  2  0
  1  6  1  0
  2  3  1  0
  3  4  2  0
  4  5  1  0
  4  7  1  0
  5  6  2  0
  7  8  1  0
  7 24  2  0
  8  9  1  0
  9 23  1  0
  9 26  2  0
 10 11  2  0
 10 23  1  0
 10 24  1  0
 11 12  1  0
 11 14  1  0
 12 13  1  0
 12 25  2  0
 13 20  1  6
 13 21  1  0
 13 22  1  0
 14 15  2  0
 14 19  1  0
 15 16  1  0
 16 17  2  0
 17 18  1  0
 18 19  2  0
 23 25  1  0
  1 27  1  0
  2 28  1  0
  3 29  1  0
  5 30  1  0
  6 31  1  0
  8 32  1  0
  8 33  1  0
 15 34  1  0
 16 35  1  0
 17 36  1  0
 18 37  1  0
 19 38  1  0
M  END
>  <filename_input>  (22) 
8EX2_Q2Q_docked.sdf

>  <pdb_id>  (22) 
8EX2_Q2Q

>  <pose_rank>  (22) 
21

>  <num_atoms_heavy>  (22) 
26

>  <num_torsions>  (22) 
3

>  <pose>  (22) 
[17.945107295544535, 14.468907317297107, 22.804420610729895, -0.6582138502074664, -3.448271717889797, -5.183752658309208, 3.5642553466806803, 0.23174801285444552, -4.268731366683857]

>  <energy>  (22) 
-1026.2485891730046

>  <inter_energy>  (22) 
-1048.3461786048022

>  <intra_energy>  (22) 
24.5528192879037

>  <rmsd>  (22) 
0.387072

>  <sdf_rank>  (22) 
0

$$$$

     RDKit          3D

 38 41  0  0  0  0  0  0  0  0999 V2000
   24.8354   10.8338   22.2694 C   0  0  0  0  0  0  0  0  0  0  0  0
   24.9634   11.9700   21.4725 C   0  0  0  0  0  0  0  0  0  0  0  0
   23.8384   12.7909   21.2136 C   0  0  0  0  0  0  0  0  0  0  0  0
   22.5451   12.5241   21.7327 C   0  0  0  0  0  0  0  0  0  0  0  0
   22.4744   11.3691   22.5773 C   0  0  0  0  0  0  0  0  0  0  0  0
   23.5770   10.5382   22.8247 C   0  0  0  0  0  0  0  0  0  0  0  0
   21.3155   13.4197   21.5194 C   0  0  0  0  0  0  0  0  0  0  0  0
   21.2911   14.4554   20.5715 C   0  0  0  0  0  0  0  0  0  0  0  0
   20.1660   15.3078   20.3695 C   0  0  0  0  0  0  0  0  0  0  0  0
   19.1310   14.0116   22.1766 C   0  0  0  0  0  0  0  0  0  0  0  0
   17.8239   14.0342   22.8700 C   0  0  0  0  0  0  0  0  0  0  0  0
   17.1462   15.0613   22.2731 C   0  0  0  0  0  0  0  0  0  0  0  0
   15.7581   15.6094   22.5774 C   0  0  2  0  0  0  0  0  0  0  0  0
   17.3812   13.1064   23.9083 C   0  0  0  0  0  0  0  0  0  0  0  0
   18.0093   13.1429   25.1920 C   0  0  0  0  0  0  0  0  0  0  0  0
   17.6429   12.2692   26.2432 C   0  0  0  0  0  0  0  0  0  0  0  0
   16.6314   11.3175   26.0334 C   0  0  0  0  0  0  0  0  0  0  0  0
   16.0283   11.2267   24.7523 C   0  0  0  0  0  0  0  0  0  0  0  0
   16.4018   12.1077   23.7090 C   0  0  0  0  0  0  0  0  0  0  0  0
   15.5115   16.6369   21.7591 F   0  0  0  0  0  0  0  0  0  0  0  0
   15.6936   16.0132   23.8517 F   0  0  0  0  0  0  0  0  0  0  0  0
   14.7863   14.6620   22.4054 F   0  0  0  0  0  0  0  0  0  0  0  0
   19.0829   15.0597   21.2461 N   0  0  0  0  0  0  0  0  0  0  0  0
   20.2062   13.2331   22.3258 N   0  0  0  0  0  0  0  0  0  0  0  0
   17.8577   15.6794   21.3038 N   0  0  0  0  0  0  0  0  0  0  0  0
   19.9987   16.2416   19.5830 O   0  0  0  0  0  0  0  0  0  0  0  0
   25.7003   10.1815   22.4601 H   0  0  0  0  0  0  0  0  0  0  0  0
   25.9420   12.2304   21.0430 H   0  0  0  0  0  0  0  0  0  0  0  0
   23.9741   13.6789   20.5788 H   0  0  0  0  0  0  0  0  0  0  0  0
   21.5133   11.1231   23.0525 H   0  0  0  0  0  0  0  0  0  0  0  0
   23.4568    9.6474   23.4587 H   0  0  0  0  0  0  0  0  0  0  0  0
   22.1295   15.1193   20.8292 H   0  0  0  0  0  0  0  0  0  0  0  0
   21.3028   13.8867   19.6300 H   0  0  0  0  0  0  0  0  0  0  0  0
   18.8080   13.8783   25.3694 H   0  0  0  0  0  0  0  0  0  0  0  0
   18.1471   12.3349   27.2186 H   0  0  0  0  0  0  0  0  0  0  0  0
   16.3118   10.6530   26.8496 H   0  0  0  0  0  0  0  0  0  0  0  0
   15.2602   10.4614   24.5672 H   0  0  0  0  0  0  0  0  0  0  0  0
   15.9204   12.0130   22.7245 H   0  0  0  0  0  0  0  0  0  0  0  0
  1  2  2  0
  1  6  1  0
  2  3  1  0
  3  4  2  0
  4  5  1  0
  4  7  1  0
  5  6  2  0
  7  8  1  0
  7 24  2  0
  8  9  1  0
  9 23  1  0
  9 26  2  0
 10 11  2  0
 10 23  1  0
 10 24  1  0
 11 12  1  0
 11 14  1  0
 12 13  1  0
 12 25  2  0
 13 20  1  6
 13 21  1  0
 13 22  1  0
 14 15  2  0
 14 19  1  0
 15 16  1  0
 16 17  2  0
 17 18  1  0
 18 19  2  0
 23 25  1  0
  1 27  1  0
  2 28  1  0
  3 29  1  0
  5 30  1  0
  6 31  1  0
  8 32  1  0
  8 33  1  0
 15 34  1  0
 16 35  1  0
 17 36  1  0
 18 37  1  0
 19 38  1  0
M  END
>  <filename_input>  (23) 
8EX2_Q2Q_docked.sdf

>  <pdb_id>  (23) 
8EX2_Q2Q

>  <pose_rank>  (23) 
22

>  <num_atoms_heavy>  (23) 
26

>  <num_torsions>  (23) 
3

>  <pose>  (23) 
[21.315527216179326, 13.4196805936394, 21.519380082061037, -0.28845814914827905, -2.412239559938499, 2.062112676257844, -0.13302056425980532, 1.9704024475469668, -2.343135633719486]

>  <energy>  (23) 
-884.2903074820126

>  <inter_energy>  (23) 
-878.3013356511107

>  <intra_energy>  (23) 
0.765587026490649

>  <rmsd>  (23) 
6.48332

>  <sdf_rank>  (23) 
0

$$$$

     RDKit          3D

 38 41  0  0  0  0  0  0  0  0999 V2000
   25.2038   11.3148   20.7848 C   0  0  0  0  0  0  0  0  0  0  0  0
   24.1208   10.8051   21.4988 C   0  0  0  0  0  0  0  0  0  0  0  0
   22.9226   11.5526   21.6086 C   0  0  0  0  0  0  0  0  0  0  0  0
   22.7458   12.8299   21.0165 C   0  0  0  0  0  0  0  0  0  0  0  0
   23.8719   13.2915   20.2608 C   0  0  0  0  0  0  0  0  0  0  0  0
   25.0700   12.5689   20.1615 C   0  0  0  0  0  0  0  0  0  0  0  0
   21.4446   13.6446   21.0675 C   0  0  0  0  0  0  0  0  0  0  0  0
   21.2683   14.8321   20.3390 C   0  0  0  0  0  0  0  0  0  0  0  0
   20.0749   15.6110   20.3852 C   0  0  0  0  0  0  0  0  0  0  0  0
   19.2902   13.9221   21.9817 C   0  0  0  0  0  0  0  0  0  0  0  0
   18.0495   13.7080   22.7593 C   0  0  0  0  0  0  0  0  0  0  0  0
   17.2547   14.7680   22.4199 C   0  0  0  0  0  0  0  0  0  0  0  0
   15.8644   15.1337   22.9228 C   0  0  2  0  0  0  0  0  0  0  0  0
   17.7621   12.5709   23.6307 C   0  0  0  0  0  0  0  0  0  0  0  0
   17.7364   12.7648   25.0468 C   0  0  0  0  0  0  0  0  0  0  0  0
   17.4766   11.7104   25.9543 C   0  0  0  0  0  0  0  0  0  0  0  0
   17.2411   10.4155   25.4640 C   0  0  0  0  0  0  0  0  0  0  0  0
   17.3122   10.1867   24.0655 C   0  0  0  0  0  0  0  0  0  0  0  0
   17.5708   11.2499   23.1673 C   0  0  0  0  0  0  0  0  0  0  0  0
   15.9301   15.3731   24.2360 F   0  0  0  0  0  0  0  0  0  0  0  0
   15.0111   14.1312   22.6821 F   0  0  0  0  0  0  0  0  0  0  0  0
   15.3697   16.2435   22.2937 F   0  0  0  0  0  0  0  0  0  0  0  0
   19.0910   15.1165   21.2742 N   0  0  0  0  0  0  0  0  0  0  0  0
   20.4245   13.2211   21.9015 N   0  0  0  0  0  0  0  0  0  0  0  0
   17.8363   15.6113   21.5376 N   0  0  0  0  0  0  0  0  0  0  0  0
   19.7773   16.6570   19.8056 O   0  0  0  0  0  0  0  0  0  0  0  0
   26.1437   10.7483   20.7102 H   0  0  0  0  0  0  0  0  0  0  0  0
   24.1968    9.8183   21.9788 H   0  0  0  0  0  0  0  0  0  0  0  0
   22.0881   11.1217   22.1813 H   0  0  0  0  0  0  0  0  0  0  0  0
   23.7936   14.2548   19.7355 H   0  0  0  0  0  0  0  0  0  0  0  0
   25.9127   12.9866   19.5910 H   0  0  0  0  0  0  0  0  0  0  0  0
   22.0790   15.5039   20.6574 H   0  0  0  0  0  0  0  0  0  0  0  0
   21.2368   14.4501   19.3080 H   0  0  0  0  0  0  0  0  0  0  0  0
   17.9258   13.7720   25.4463 H   0  0  0  0  0  0  0  0  0  0  0  0
   17.4592   11.9038   27.0370 H   0  0  0  0  0  0  0  0  0  0  0  0
   17.0052    9.5915   26.1535 H   0  0  0  0  0  0  0  0  0  0  0  0
   17.1644    9.1694   23.6739 H   0  0  0  0  0  0  0  0  0  0  0  0
   17.6237   11.0438   22.0881 H   0  0  0  0  0  0  0  0  0  0  0  0
  1  2  2  0
  1  6  1  0
  2  3  1  0
  3  4  2  0
  4  5  1  0
  4  7  1  0
  5  6  2  0
  7  8  1  0
  7 24  2  0
  8  9  1  0
  9 23  1  0
  9 26  2  0
 10 11  2  0
 10 23  1  0
 10 24  1  0
 11 12  1  0
 11 14  1  0
 12 13  1  0
 12 25  2  0
 13 20  1  1
 13 21  1  0
 13 22  1  0
 14 15  2  0
 14 19  1  0
 15 16  1  0
 16 17  2  0
 17 18  1  0
 18 19  2  0
 23 25  1  0
  1 27  1  0
  2 28  1  0
  3 29  1  0
  5 30  1  0
  6 31  1  0
  8 32  1  0
  8 33  1  0
 15 34  1  0
 16 35  1  0
 17 36  1  0
 18 37  1  0
 19 38  1  0
M  END
>  <filename_input>  (24) 
8EX2_Q2Q_docked.sdf

>  <pdb_id>  (24) 
8EX2_Q2Q

>  <pose_rank>  (24) 
23

>  <num_atoms_heavy>  (24) 
26

>  <num_torsions>  (24) 
3

>  <pose>  (24) 
[21.44464444394516, 13.644610943855461, 21.06748892471558, -0.11880201000206472, -2.582171030639938, 1.813652743173813, -3.36814710053332, 2.670959148738417, -4.373676668186755]

>  <energy>  (24) 
-990.1841945141393

>  <inter_energy>  (24) 
-972.5839206811587

>  <intra_energy>  (24) 
1.114829242276282

>  <rmsd>  (24) 
6.4512

>  <sdf_rank>  (24) 
0

$$$$

     RDKit          3D

 38 41  0  0  0  0  0  0  0  0999 V2000
   14.2538   14.7707   24.1917 C   0  0  0  0  0  0  0  0  0  0  0  0
   15.3880   14.3502   24.8839 C   0  0  0  0  0  0  0  0  0  0  0  0
   16.6540   14.3526   24.2484 C   0  0  0  0  0  0  0  0  0  0  0  0
   16.8501   14.7722   22.9073 C   0  0  0  0  0  0  0  0  0  0  0  0
   15.6618   15.2325   22.2527 C   0  0  0  0  0  0  0  0  0  0  0  0
   14.4002   15.2162   22.8653 C   0  0  0  0  0  0  0  0  0  0  0  0
   18.2135   14.8408   22.2032 C   0  0  0  0  0  0  0  0  0  0  0  0
   18.5675   15.8935   21.3438 C   0  0  0  0  0  0  0  0  0  0  0  0
   19.8211   15.9673   20.6685 C   0  0  0  0  0  0  0  0  0  0  0  0
   20.2940   13.8243   21.7643 C   0  0  0  0  0  0  0  0  0  0  0  0
   21.4338   12.8806   21.7781 C   0  0  0  0  0  0  0  0  0  0  0  0
   22.3537   13.4547   20.9446 C   0  0  0  0  0  0  0  0  0  0  0  0
   23.7221   12.9418   20.5153 C   0  0  2  0  0  0  0  0  0  0  0  0
   21.5317   11.6566   22.5699 C   0  0  0  0  0  0  0  0  0  0  0  0
   20.9341   11.6144   23.8679 C   0  0  0  0  0  0  0  0  0  0  0  0
   20.9968   10.4694   24.6973 C   0  0  0  0  0  0  0  0  0  0  0  0
   21.6750    9.3243   24.2486 C   0  0  0  0  0  0  0  0  0  0  0  0
   22.3206    9.3586   22.9856 C   0  0  0  0  0  0  0  0  0  0  0  0
   22.2491   10.5091   22.1638 C   0  0  0  0  0  0  0  0  0  0  0  0
   23.5546   11.9696   19.6136 F   0  0  0  0  0  0  0  0  0  0  0  0
   24.3895   12.4724   21.5761 F   0  0  0  0  0  0  0  0  0  0  0  0
   24.4881   13.9319   19.9633 F   0  0  0  0  0  0  0  0  0  0  0  0
   20.6694   14.8569   20.8927 N   0  0  0  0  0  0  0  0  0  0  0  0
   19.1096   13.8011   22.3814 N   0  0  0  0  0  0  0  0  0  0  0  0
   21.9371   14.6267   20.4147 N   0  0  0  0  0  0  0  0  0  0  0  0
   20.2682   16.8199   19.8992 O   0  0  0  0  0  0  0  0  0  0  0  0
   13.2646   14.7547   24.6726 H   0  0  0  0  0  0  0  0  0  0  0  0
   15.2998   14.0151   25.9279 H   0  0  0  0  0  0  0  0  0  0  0  0
   17.5281   14.0124   24.8230 H   0  0  0  0  0  0  0  0  0  0  0  0
   15.7424   15.6154   21.2246 H   0  0  0  0  0  0  0  0  0  0  0  0
   13.5171   15.5548   22.3036 H   0  0  0  0  0  0  0  0  0  0  0  0
   17.7996   15.9105   20.5563 H   0  0  0  0  0  0  0  0  0  0  0  0
   18.6544   16.7304   22.0523 H   0  0  0  0  0  0  0  0  0  0  0  0
   20.4053   12.5060   24.2360 H   0  0  0  0  0  0  0  0  0  0  0  0
   20.5174   10.4763   25.6873 H   0  0  0  0  0  0  0  0  0  0  0  0
   21.7052    8.4149   24.8668 H   0  0  0  0  0  0  0  0  0  0  0  0
   22.8843    8.4794   22.6403 H   0  0  0  0  0  0  0  0  0  0  0  0
   22.7618   10.5097   21.1906 H   0  0  0  0  0  0  0  0  0  0  0  0
  1  2  2  0
  1  6  1  0
  2  3  1  0
  3  4  2  0
  4  5  1  0
  4  7  1  0
  5  6  2  0
  7  8  1  0
  7 24  2  0
  8  9  1  0
  9 23  1  0
  9 26  2  0
 10 11  2  0
 10 23  1  0
 10 24  1  0
 11 12  1  0
 11 14  1  0
 12 13  1  0
 12 25  2  0
 13 20  1  6
 13 21  1  0
 13 22  1  0
 14 15  2  0
 14 19  1  0
 15 16  1  0
 16 17  2  0
 17 18  1  0
 18 19  2  0
 23 25  1  0
  1 27  1  0
  2 28  1  0
  3 29  1  0
  5 30  1  0
  6 31  1  0
  8 32  1  0
  8 33  1  0
 15 34  1  0
 16 35  1  0
 17 36  1  0
 18 37  1  0
 19 38  1  0
M  END
>  <filename_input>  (25) 
8EX2_Q2Q_docked.sdf

>  <pdb_id>  (25) 
8EX2_Q2Q

>  <pose_rank>  (25) 
24

>  <num_atoms_heavy>  (25) 
26

>  <num_torsions>  (25) 
3

>  <pose>  (25) 
[18.213538249213165, 14.84081060911529, 22.203179509530184, -0.6272803505256559, -3.4306377548643807, -5.292851284512548, 3.4871210126633496, 0.17809251026786826, -4.145936007779329]

>  <energy>  (25) 
-995.9740255818269

>  <inter_energy>  (25) 
-1011.5615156102037

>  <intra_energy>  (25) 
23.88884620666446

>  <rmsd>  (25) 
0.589728

>  <sdf_rank>  (25) 
0

$$$$

     RDKit          3D

 38 41  0  0  0  0  0  0  0  0999 V2000
   13.9870   13.9700   24.6500 C   0  0  0  0  0  0  0  0  0  0  0  0
   14.0580   14.8190   23.5470 C   0  0  0  0  0  0  0  0  0  0  0  0
   15.2870   15.0060   22.8680 C   0  0  0  0  0  0  0  0  0  0  0  0
   16.4920   14.3610   23.2490 C   0  0  0  0  0  0  0  0  0  0  0  0
   16.3580   13.4690   24.3620 C   0  0  0  0  0  0  0  0  0  0  0  0
   15.1510   13.2910   25.0540 C   0  0  0  0  0  0  0  0  0  0  0  0
   17.8290   14.4960   22.5050 C   0  0  0  0  0  0  0  0  0  0  0  0
   18.1080   15.5680   21.6420 C   0  0  0  0  0  0  0  0  0  0  0  0
   19.3360   15.7030   20.9300 C   0  0  0  0  0  0  0  0  0  0  0  0
   19.9400   13.5790   21.9980 C   0  0  0  0  0  0  0  0  0  0  0  0
   21.1220   12.6890   21.9720 C   0  0  0  0  0  0  0  0  0  0  0  0
   21.9890   13.3090   21.1150 C   0  0  0  0  0  0  0  0  0  0  0  0
   23.3660   12.8620   20.6420 C   0  0  2  0  0  0  0  0  0  0  0  0
   21.3000   11.4670   22.7530 C   0  0  0  0  0  0  0  0  0  0  0  0
   20.9420   11.4640   24.1370 C   0  0  0  0  0  0  0  0  0  0  0  0
   21.0960   10.3230   24.9600 C   0  0  0  0  0  0  0  0  0  0  0  0
   21.6270    9.1420   24.4160 C   0  0  0  0  0  0  0  0  0  0  0  0
   22.0380    9.1350   23.0580 C   0  0  0  0  0  0  0  0  0  0  0  0
   21.8770   10.2820   22.2440 C   0  0  0  0  0  0  0  0  0  0  0  0
   24.0770   12.4630   21.7010 F   0  0  0  0  0  0  0  0  0  0  0  0
   23.9900   13.8730   20.0260 F   0  0  0  0  0  0  0  0  0  0  0  0
   23.2880   11.8310   19.7460 F   0  0  0  0  0  0  0  0  0  0  0  0
   20.2410   14.6320   21.1220 N   0  0  0  0  0  0  0  0  0  0  0  0
   18.7770   13.4980   22.6500 N   0  0  0  0  0  0  0  0  0  0  0  0
   21.5030   14.4630   20.6050 N   0  0  0  0  0  0  0  0  0  0  0  0
   19.7200   16.5790   20.1530 O   0  0  0  0  0  0  0  0  0  0  0  0
   13.0404   13.8336   25.1934 H   0  0  0  0  0  0  0  0  0  0  0  0
   13.1560   15.3460   23.2024 H   0  0  0  0  0  0  0  0  0  0  0  0
   15.3083   15.6847   22.0026 H   0  0  0  0  0  0  0  0  0  0  0  0
   17.2403   12.8987   24.6882 H   0  0  0  0  0  0  0  0  0  0  0  0
   15.1142   12.6143   25.9205 H   0  0  0  0  0  0  0  0  0  0  0  0
   17.3169   15.5532   20.8779 H   0  0  0  0  0  0  0  0  0  0  0  0
   18.1775   16.4047   22.3527 H   0  0  0  0  0  0  0  0  0  0  0  0
   20.5312   12.3836   24.5791 H   0  0  0  0  0  0  0  0  0  0  0  0
   20.8016   10.3609   26.0192 H   0  0  0  0  0  0  0  0  0  0  0  0
   21.7228    8.2365   25.0332 H   0  0  0  0  0  0  0  0  0  0  0  0
   22.4878    8.2261   22.6319 H   0  0  0  0  0  0  0  0  0  0  0  0
   22.2074   10.2501   21.1953 H   0  0  0  0  0  0  0  0  0  0  0  0
  1  2  2  0
  1  6  1  0
  2  3  1  0
  3  4  2  0
  4  5  1  0
  4  7  1  0
  5  6  2  0
  7  8  1  0
  7 24  2  0
  8  9  1  0
  9 23  1  0
  9 26  2  0
 10 11  2  0
 10 23  1  0
 10 24  1  0
 11 12  1  0
 11 14  1  0
 12 13  1  0
 12 25  2  0
 13 20  1  1
 13 21  1  0
 13 22  1  0
 14 15  2  0
 14 19  1  0
 15 16  1  0
 16 17  2  0
 17 18  1  0
 18 19  2  0
 23 25  1  0
  1 27  1  0
  2 28  1  0
  3 29  1  0
  5 30  1  0
  6 31  1  0
  8 32  1  0
  8 33  1  0
 15 34  1  0
 16 35  1  0
 17 36  1  0
 18 37  1  0
 19 38  1  0
M  END
>  <filename_input>  (26) 
8EX2_Q2Q_docked.sdf

>  <pdb_id>  (26) 
8EX2_Q2Q

>  <pose_rank>  (26) 
25

>  <num_atoms_heavy>  (26) 
26

>  <num_torsions>  (26) 
3

>  <pose>  (26) 
[17.829, 14.496, 22.505, 1e-06, 1e-06, 1e-06, 0.0, 0.0, 0.0]

>  <energy>  (26) 
-1082.220788487732

>  <inter_energy>  (26) 
-1105.8503084223514

>  <intra_energy>  (26) 
14.207191947066944

>  <rmsd>  (26) 
0.0

>  <sdf_rank>  (26) 
0

$$$$
