
     RDKit          3D

 62 66  0  0  0  0  0  0  0  0999 V2000
  -22.0523   18.6763   34.1015 C   0  0  0  0  0  0  0  0  0  0  0  0
  -21.1844   17.4911   34.3999 C   0  0  2  0  0  0  0  0  0  0  0  0
  -22.0037   16.2027   34.3033 C   0  0  0  0  0  0  0  0  0  0  0  0
  -20.5946   17.6493   35.8048 C   0  0  0  0  0  0  0  0  0  0  0  0
  -19.7018   16.3111   32.7374 C   0  0  0  0  0  0  0  0  0  0  0  0
  -17.9064   15.8230   30.9882 C   0  0  0  0  0  0  0  0  0  0  0  0
  -14.0749   15.7964   28.3363 C   0  0  0  0  0  0  0  0  0  0  0  0
  -13.4219   14.4508   28.0514 C   0  0  0  0  0  0  0  0  0  0  0  0
  -14.2833   12.4170   26.8686 C   0  0  0  0  0  0  0  0  0  0  0  0
  -16.4217   14.2493   29.2291 C   0  0  0  0  0  0  0  0  0  0  0  0
  -17.7596   13.9643   29.4877 C   0  0  0  0  0  0  0  0  0  0  0  0
  -17.8150    9.7252   27.1805 C   0  0  1  0  0  0  0  0  0  0  0  0
  -19.1136    9.3903   26.4483 C   0  0  0  0  0  0  0  0  0  0  0  0
  -17.5135    8.7480   28.3172 C   0  0  0  0  0  0  0  0  0  0  0  0
  -23.0406   18.5871   33.1789 N   0  0  0  0  0  0  0  0  0  0  0  0
  -21.8673   19.7077   34.7065 O   0  0  0  0  0  0  0  0  0  0  0  0
  -20.1024   17.4173   33.4094 N   0  0  0  0  0  0  0  0  0  0  0  0
  -18.6692   16.6940   31.9244 C   0  0  0  0  0  0  0  0  0  0  0  0
  -18.4702   18.0812   32.0985 C   0  0  0  0  0  0  0  0  0  0  0  0
  -19.3274   18.5028   32.9882 N   0  0  0  0  0  0  0  0  0  0  0  0
  -16.5834   16.1332   30.7412 C   0  0  0  0  0  0  0  0  0  0  0  0
  -15.8329   15.3703   29.8743 C   0  0  0  0  0  0  0  0  0  0  0  0
  -14.5582   15.7285   29.6795 O   0  0  0  0  0  0  0  0  0  0  0  0
  -14.4367   13.4532   27.7423 N   0  0  0  0  0  0  0  0  0  0  0  0
  -15.4414   11.7047   26.8572 C   0  0  0  0  0  0  0  0  0  0  0  0
  -16.2950   12.3071   27.7181 N   0  0  0  0  0  0  0  0  0  0  0  0
  -15.7277   13.3555   28.2655 C   0  0  0  0  0  0  0  0  0  0  0  0
  -18.5026   14.7314   30.3616 C   0  0  0  0  0  0  0  0  0  0  0  0
  -15.6823   10.4757   26.0740 C   0  0  0  0  0  0  0  0  0  0  0  0
  -14.9037    9.9860   25.1294 N   0  0  0  0  0  0  0  0  0  0  0  0
  -15.4117    8.8501   24.6682 C   0  0  0  0  0  0  0  0  0  0  0  0
  -14.8184    7.9852   23.5785 C   0  0  0  0  0  0  0  0  0  0  0  0
  -16.5120    8.5916   25.3166 N   0  0  0  0  0  0  0  0  0  0  0  0
  -16.7026    9.6220   26.2368 N   0  0  0  0  0  0  0  0  0  0  0  0
  -22.2352   15.8386   35.3152 H   0  0  0  0  0  0  0  0  0  0  0  0
  -22.9404   16.4034   33.7626 H   0  0  0  0  0  0  0  0  0  0  0  0
  -21.4246   15.4396   33.7626 H   0  0  0  0  0  0  0  0  0  0  0  0
  -21.3721   17.4407   36.5545 H   0  0  0  0  0  0  0  0  0  0  0  0
  -19.7614   16.9429   35.9343 H   0  0  0  0  0  0  0  0  0  0  0  0
  -20.2268   18.6779   35.9343 H   0  0  0  0  0  0  0  0  0  0  0  0
  -20.1248   15.2997   32.8278 H   0  0  0  0  0  0  0  0  0  0  0  0
  -13.3377   16.6067   28.2368 H   0  0  0  0  0  0  0  0  0  0  0  0
  -14.8896   16.0048   27.6272 H   0  0  0  0  0  0  0  0  0  0  0  0
  -12.7398   14.5525   27.1944 H   0  0  0  0  0  0  0  0  0  0  0  0
  -12.8621   14.1285   28.9417 H   0  0  0  0  0  0  0  0  0  0  0  0
  -13.3819   12.1965   26.2779 H   0  0  0  0  0  0  0  0  0  0  0  0
  -18.2347   13.1093   28.9845 H   0  0  0  0  0  0  0  0  0  0  0  0
  -17.9327   10.7370   27.5957 H   0  0  0  0  0  0  0  0  0  0  0  0
  -19.9064    9.1858   27.1829 H   0  0  0  0  0  0  0  0  0  0  0  0
  -19.4089   10.2417   25.8175 H   0  0  0  0  0  0  0  0  0  0  0  0
  -18.9603    8.5023   25.8175 H   0  0  0  0  0  0  0  0  0  0  0  0
  -17.6685    9.2504   29.2834 H   0  0  0  0  0  0  0  0  0  0  0  0
  -18.1857    7.8805   28.2430 H   0  0  0  0  0  0  0  0  0  0  0  0
  -16.4692    8.4102   28.2430 H   0  0  0  0  0  0  0  0  0  0  0  0
  -23.6335   19.4052   32.9785 H   0  0  0  0  0  0  0  0  0  0  0  0
  -23.1991   17.7011   32.6780 H   0  0  0  0  0  0  0  0  0  0  0  0
  -17.7240   18.6980   31.5762 H   0  0  0  0  0  0  0  0  0  0  0  0
  -16.1245   16.9985   31.2419 H   0  0  0  0  0  0  0  0  0  0  0  0
  -19.5554   14.4832   30.5615 H   0  0  0  0  0  0  0  0  0  0  0  0
  -14.2519    7.1594   24.0335 H   0  0  0  0  0  0  0  0  0  0  0  0
  -15.6266    7.5756   22.9547 H   0  0  0  0  0  0  0  0  0  0  0  0
  -14.1453    8.5917   22.9547 H   0  0  0  0  0  0  0  0  0  0  0  0
  1  2  1  0
  1 15  1  0
  1 16  2  0
  2  3  1  1
  2  4  1  0
  2 17  1  0
  5 17  1  0
  5 18  2  0
  6 18  1  0
  6 21  1  0
  6 28  2  0
  7  8  1  0
  7 23  1  0
  8 24  1  0
  9 24  1  0
  9 25  2  0
 10 11  2  0
 10 22  1  0
 10 27  1  0
 11 28  1  0
 12 13  1  0
 12 14  1  0
 12 34  1  0
 17 20  1  0
 18 19  1  0
 19 20  2  0
 21 22  2  0
 22 23  1  0
 24 27  1  0
 25 26  1  0
 25 29  1  0
 26 27  2  0
 29 30  2  0
 29 34  1  0
 30 31  1  0
 31 32  1  0
 31 33  2  0
 33 34  1  0
  3 35  1  0
  3 36  1  0
  3 37  1  0
  4 38  1  0
  4 39  1  0
  4 40  1  0
  5 41  1  0
  7 42  1  0
  7 43  1  0
  8 44  1  0
  8 45  1  0
  9 46  1  0
 11 47  1  0
 12 48  1  1
 13 49  1  0
 13 50  1  0
 13 51  1  0
 14 52  1  0
 14 53  1  0
 14 54  1  0
 15 55  1  0
 15 56  1  0
 19 57  1  0
 21 58  1  0
 28 59  1  0
 32 60  1  0
 32 61  1  0
 32 62  1  0
M  END
>  <filename_input>  (1) 
8EXL_799_docked.sdf

>  <pdb_id>  (1) 
8EXL_799

>  <pose_rank>  (1) 
0

>  <num_atoms_heavy>  (1) 
34

>  <num_torsions>  (1) 
5

>  <pose>  (1) 
[-17.906446329353027, 15.822965046205555, 30.988165248279756, -2.3040062141630018, 5.074318115899365, 2.5863110158427904, 6.143885647599768, 0.20013266583746248, -5.536909887086096, -1.5101407316811837, 2.153311968540533]

>  <energy>  (1) 
-1505.8210058126274

>  <inter_energy>  (1) 
-1504.6718262705033

>  <intra_energy>  (1) 
14.172701073943825

>  <rmsd>  (1) 
0.836035

>  <sdf_rank>  (1) 
0

$$$$

     RDKit          3D

 62 66  0  0  0  0  0  0  0  0999 V2000
  -21.9278   17.1822   34.7929 C   0  0  0  0  0  0  0  0  0  0  0  0
  -21.5180   18.1472   33.7214 C   0  0  2  0  0  0  0  0  0  0  0  0
  -21.4019   19.5580   34.3016 C   0  0  0  0  0  0  0  0  0  0  0  0
  -22.5584   18.1117   32.5976 C   0  0  0  0  0  0  0  0  0  0  0  0
  -19.9568   16.8175   32.2554 C   0  0  0  0  0  0  0  0  0  0  0  0
  -17.8539   15.9070   31.1283 C   0  0  0  0  0  0  0  0  0  0  0  0
  -14.1281   15.8959   28.3297 C   0  0  0  0  0  0  0  0  0  0  0  0
  -13.4542   14.5585   28.0554 C   0  0  0  0  0  0  0  0  0  0  0  0
  -14.3111   12.4732   26.9622 C   0  0  0  0  0  0  0  0  0  0  0  0
  -16.4005   14.3201   29.3550 C   0  0  0  0  0  0  0  0  0  0  0  0
  -17.7202   14.0115   29.6734 C   0  0  0  0  0  0  0  0  0  0  0  0
  -17.7058    9.6627   27.5464 C   0  0  1  0  0  0  0  0  0  0  0  0
  -19.0668    9.5308   26.8646 C   0  0  0  0  0  0  0  0  0  0  0  0
  -17.4331    8.5296   28.5361 C   0  0  0  0  0  0  0  0  0  0  0  0
  -22.7616   16.1535   34.5063 N   0  0  0  0  0  0  0  0  0  0  0  0
  -21.4915   17.3267   35.9122 O   0  0  0  0  0  0  0  0  0  0  0  0
  -20.2018   17.7619   33.1956 N   0  0  0  0  0  0  0  0  0  0  0  0
  -18.6009   16.7857   32.0701 C   0  0  0  0  0  0  0  0  0  0  0  0
  -18.0245   17.7656   32.9079 C   0  0  0  0  0  0  0  0  0  0  0  0
  -18.9867   18.3401   33.5773 N   0  0  0  0  0  0  0  0  0  0  0  0
  -16.5493   16.2409   30.8213 C   0  0  0  0  0  0  0  0  0  0  0  0
  -15.8146   15.4719   29.9464 C   0  0  0  0  0  0  0  0  0  0  0  0
  -14.5574   15.8540   29.6922 O   0  0  0  0  0  0  0  0  0  0  0  0
  -14.4558   13.5294   27.8132 N   0  0  0  0  0  0  0  0  0  0  0  0
  -15.4512   11.7343   27.0153 C   0  0  0  0  0  0  0  0  0  0  0  0
  -16.2852   12.3403   27.8927 N   0  0  0  0  0  0  0  0  0  0  0  0
  -15.7228   13.4163   28.3892 C   0  0  0  0  0  0  0  0  0  0  0  0
  -18.4472   14.7850   30.5551 C   0  0  0  0  0  0  0  0  0  0  0  0
  -15.6923   10.4788   26.2753 C   0  0  0  0  0  0  0  0  0  0  0  0
  -14.9617   10.0018   25.2868 N   0  0  0  0  0  0  0  0  0  0  0  0
  -15.4503    8.8352   24.8853 C   0  0  0  0  0  0  0  0  0  0  0  0
  -14.8980    7.9723   23.7728 C   0  0  0  0  0  0  0  0  0  0  0  0
  -16.4893    8.5444   25.6160 N   0  0  0  0  0  0  0  0  0  0  0  0
  -16.6596    9.5861   26.5274 N   0  0  0  0  0  0  0  0  0  0  0  0
  -21.4063   19.5041   35.4002 H   0  0  0  0  0  0  0  0  0  0  0  0
  -20.4628   20.0184   33.9608 H   0  0  0  0  0  0  0  0  0  0  0  0
  -22.2530   20.1658   33.9608 H   0  0  0  0  0  0  0  0  0  0  0  0
  -23.5678   18.0774   33.0334 H   0  0  0  0  0  0  0  0  0  0  0  0
  -22.4578   19.0138   31.9762 H   0  0  0  0  0  0  0  0  0  0  0  0
  -22.3967   17.2186   31.9762 H   0  0  0  0  0  0  0  0  0  0  0  0
  -20.7038   16.1958   31.7401 H   0  0  0  0  0  0  0  0  0  0  0  0
  -13.4151   16.7200   28.1797 H   0  0  0  0  0  0  0  0  0  0  0  0
  -14.9744   16.0657   27.6478 H   0  0  0  0  0  0  0  0  0  0  0  0
  -12.8084   14.6521   27.1699 H   0  0  0  0  0  0  0  0  0  0  0  0
  -12.8528   14.2740   28.9314 H   0  0  0  0  0  0  0  0  0  0  0  0
  -13.4281   12.2575   26.3426 H   0  0  0  0  0  0  0  0  0  0  0  0
  -18.1935   13.1321   29.2124 H   0  0  0  0  0  0  0  0  0  0  0  0
  -17.7091   10.6210   28.0863 H   0  0  0  0  0  0  0  0  0  0  0  0
  -19.8541    9.4546   27.6291 H   0  0  0  0  0  0  0  0  0  0  0  0
  -19.2498   10.4154   26.2369 H   0  0  0  0  0  0  0  0  0  0  0  0
  -19.0766    8.6275   26.2369 H   0  0  0  0  0  0  0  0  0  0  0  0
  -17.5248    8.9106   29.5639 H   0  0  0  0  0  0  0  0  0  0  0  0
  -18.1623    7.7214   28.3782 H   0  0  0  0  0  0  0  0  0  0  0  0
  -16.4159    8.1418   28.3782 H   0  0  0  0  0  0  0  0  0  0  0  0
  -23.0394   15.4939   35.2471 H   0  0  0  0  0  0  0  0  0  0  0  0
  -23.1178   16.0310   33.5476 H   0  0  0  0  0  0  0  0  0  0  0  0
  -16.9531   18.0029   32.9831 H   0  0  0  0  0  0  0  0  0  0  0  0
  -16.0925   17.1300   31.2804 H   0  0  0  0  0  0  0  0  0  0  0  0
  -19.4852   14.5180   30.8027 H   0  0  0  0  0  0  0  0  0  0  0  0
  -14.3528    7.1205   24.2056 H   0  0  0  0  0  0  0  0  0  0  0  0
  -15.7262    7.6002   23.1518 H   0  0  0  0  0  0  0  0  0  0  0  0
  -14.2133    8.5685   23.1518 H   0  0  0  0  0  0  0  0  0  0  0  0
  1  2  1  0
  1 15  1  0
  1 16  2  0
  2  3  1  1
  2  4  1  0
  2 17  1  0
  5 17  1  0
  5 18  2  0
  6 18  1  0
  6 21  1  0
  6 28  2  0
  7  8  1  0
  7 23  1  0
  8 24  1  0
  9 24  1  0
  9 25  2  0
 10 11  2  0
 10 22  1  0
 10 27  1  0
 11 28  1  0
 12 13  1  0
 12 14  1  0
 12 34  1  0
 17 20  1  0
 18 19  1  0
 19 20  2  0
 21 22  2  0
 22 23  1  0
 24 27  1  0
 25 26  1  0
 25 29  1  0
 26 27  2  0
 29 30  2  0
 29 34  1  0
 30 31  1  0
 31 32  1  0
 31 33  2  0
 33 34  1  0
  3 35  1  0
  3 36  1  0
  3 37  1  0
  4 38  1  0
  4 39  1  0
  4 40  1  0
  5 41  1  0
  7 42  1  0
  7 43  1  0
  8 44  1  0
  8 45  1  0
  9 46  1  0
 11 47  1  0
 12 48  1  1
 13 49  1  0
 13 50  1  0
 13 51  1  0
 14 52  1  0
 14 53  1  0
 14 54  1  0
 15 55  1  0
 15 56  1  0
 19 57  1  0
 21 58  1  0
 28 59  1  0
 32 60  1  0
 32 61  1  0
 32 62  1  0
M  END
>  <filename_input>  (2) 
8EXL_799_docked.sdf

>  <pdb_id>  (2) 
8EXL_799

>  <pose_rank>  (2) 
1

>  <num_atoms_heavy>  (2) 
34

>  <num_torsions>  (2) 
5

>  <pose>  (2) 
[-17.853933918485865, 15.906984468921069, 31.128302059500278, -1.7922630912251112, 5.406647716205398, 2.437773987873816, -0.1779029440198709, 0.005561994767609734, -0.07254568942525348, 2.2553854463208687, -1.007712553337156]

>  <energy>  (2) 
-1494.8954099955117

>  <inter_energy>  (2) 
-1490.1689708224346

>  <intra_energy>  (2) 
12.694476839622956

>  <rmsd>  (2) 
1.06499

>  <sdf_rank>  (2) 
0

$$$$

     RDKit          3D

 62 66  0  0  0  0  0  0  0  0999 V2000
  -21.3866   18.9763   34.8866 C   0  0  0  0  0  0  0  0  0  0  0  0
  -21.5593   18.0368   33.7313 C   0  0  2  0  0  0  0  0  0  0  0  0
  -22.3397   18.7229   32.6085 C   0  0  0  0  0  0  0  0  0  0  0  0
  -22.3004   16.7865   34.2151 C   0  0  0  0  0  0  0  0  0  0  0  0
  -19.9872   16.7255   32.2603 C   0  0  0  0  0  0  0  0  0  0  0  0
  -17.8768   15.8350   31.1314 C   0  0  0  0  0  0  0  0  0  0  0  0
  -14.1442   15.8625   28.3418 C   0  0  0  0  0  0  0  0  0  0  0  0
  -13.4623   14.5306   28.0607 C   0  0  0  0  0  0  0  0  0  0  0  0
  -14.3049   12.4478   26.9521 C   0  0  0  0  0  0  0  0  0  0  0  0
  -16.4103   14.2677   29.3515 C   0  0  0  0  0  0  0  0  0  0  0  0
  -17.7290   13.9497   29.6647 C   0  0  0  0  0  0  0  0  0  0  0  0
  -18.0140    9.9600   27.0346 C   0  0  1  0  0  0  0  0  0  0  0  0
  -19.2036    9.8149   26.0867 C   0  0  0  0  0  0  0  0  0  0  0  0
  -18.0501    8.9484   28.1805 C   0  0  0  0  0  0  0  0  0  0  0  0
  -21.1174   18.4973   36.1250 N   0  0  0  0  0  0  0  0  0  0  0  0
  -21.4763   20.1675   34.6940 O   0  0  0  0  0  0  0  0  0  0  0  0
  -20.2398   17.6630   33.2054 N   0  0  0  0  0  0  0  0  0  0  0  0
  -18.6309   16.7035   32.0770 C   0  0  0  0  0  0  0  0  0  0  0  0
  -18.0621   17.6823   32.9212 C   0  0  0  0  0  0  0  0  0  0  0  0
  -19.0291   18.2468   33.5924 N   0  0  0  0  0  0  0  0  0  0  0  0
  -16.5733   16.1781   30.8298 C   0  0  0  0  0  0  0  0  0  0  0  0
  -15.8322   15.4188   29.9517 C   0  0  0  0  0  0  0  0  0  0  0  0
  -14.5765   15.8095   29.7030 O   0  0  0  0  0  0  0  0  0  0  0  0
  -14.4575   13.4976   27.8094 N   0  0  0  0  0  0  0  0  0  0  0  0
  -15.4410   11.7022   26.9976 C   0  0  0  0  0  0  0  0  0  0  0  0
  -16.2805   12.2980   27.8768 N   0  0  0  0  0  0  0  0  0  0  0  0
  -15.7253   13.3739   28.3816 C   0  0  0  0  0  0  0  0  0  0  0  0
  -18.4624   14.7135   30.5495 C   0  0  0  0  0  0  0  0  0  0  0  0
  -15.6734   10.4502   26.2490 C   0  0  0  0  0  0  0  0  0  0  0  0
  -14.8077    9.8347   25.4679 N   0  0  0  0  0  0  0  0  0  0  0  0
  -15.3438    8.7193   24.9890 C   0  0  0  0  0  0  0  0  0  0  0  0
  -14.6736    7.7374   24.0541 C   0  0  0  0  0  0  0  0  0  0  0  0
  -16.5512    8.5994   25.4643 N   0  0  0  0  0  0  0  0  0  0  0  0
  -16.7833    9.7001   26.2885 N   0  0  0  0  0  0  0  0  0  0  0  0
  -23.0983   19.3899   33.0438 H   0  0  0  0  0  0  0  0  0  0  0  0
  -21.6479   19.3106   31.9871 H   0  0  0  0  0  0  0  0  0  0  0  0
  -22.8339   17.9615   31.9871 H   0  0  0  0  0  0  0  0  0  0  0  0
  -22.3107   16.7690   35.3150 H   0  0  0  0  0  0  0  0  0  0  0  0
  -23.3339   16.8042   33.8390 H   0  0  0  0  0  0  0  0  0  0  0  0
  -21.7886   15.8883   33.8390 H   0  0  0  0  0  0  0  0  0  0  0  0
  -20.7294   16.1021   31.7402 H   0  0  0  0  0  0  0  0  0  0  0  0
  -13.4355   16.6915   28.1989 H   0  0  0  0  0  0  0  0  0  0  0  0
  -14.9898   16.0320   27.6590 H   0  0  0  0  0  0  0  0  0  0  0  0
  -12.8148   14.6336   27.1774 H   0  0  0  0  0  0  0  0  0  0  0  0
  -12.8614   14.2439   28.9363 H   0  0  0  0  0  0  0  0  0  0  0  0
  -13.4193   12.2409   26.3332 H   0  0  0  0  0  0  0  0  0  0  0  0
  -18.1963   13.0706   29.1969 H   0  0  0  0  0  0  0  0  0  0  0  0
  -18.0570   10.9777   27.4497 H   0  0  0  0  0  0  0  0  0  0  0  0
  -20.1277    9.7022   26.6726 H   0  0  0  0  0  0  0  0  0  0  0  0
  -19.2784   10.7106   25.4525 H   0  0  0  0  0  0  0  0  0  0  0  0
  -19.0610    8.9275   25.4525 H   0  0  0  0  0  0  0  0  0  0  0  0
  -18.0310    9.4826   29.1419 H   0  0  0  0  0  0  0  0  0  0  0  0
  -18.9702    8.3494   28.1121 H   0  0  0  0  0  0  0  0  0  0  0  0
  -17.1750    8.2854   28.1121 H   0  0  0  0  0  0  0  0  0  0  0  0
  -20.9999   19.1482   36.9146 H   0  0  0  0  0  0  0  0  0  0  0  0
  -21.0301   17.4823   36.2769 H   0  0  0  0  0  0  0  0  0  0  0  0
  -16.9923   17.9261   32.9996 H   0  0  0  0  0  0  0  0  0  0  0  0
  -16.1225   17.0668   31.2956 H   0  0  0  0  0  0  0  0  0  0  0  0
  -19.4995   14.4392   30.7929 H   0  0  0  0  0  0  0  0  0  0  0  0
  -14.1496    6.9699   24.6426 H   0  0  0  0  0  0  0  0  0  0  0  0
  -15.4336    7.2578   23.4198 H   0  0  0  0  0  0  0  0  0  0  0  0
  -13.9500    8.2705   23.4198 H   0  0  0  0  0  0  0  0  0  0  0  0
  1  2  1  0
  1 15  1  0
  1 16  2  0
  2  3  1  6
  2  4  1  0
  2 17  1  0
  5 17  1  0
  5 18  2  0
  6 18  1  0
  6 21  1  0
  6 28  2  0
  7  8  1  0
  7 23  1  0
  8 24  1  0
  9 24  1  0
  9 25  2  0
 10 11  2  0
 10 22  1  0
 10 27  1  0
 11 28  1  0
 12 13  1  0
 12 14  1  0
 12 34  1  0
 17 20  1  0
 18 19  1  0
 19 20  2  0
 21 22  2  0
 22 23  1  0
 24 27  1  0
 25 26  1  0
 25 29  1  0
 26 27  2  0
 29 30  2  0
 29 34  1  0
 30 31  1  0
 31 32  1  0
 31 33  2  0
 33 34  1  0
  3 35  1  0
  3 36  1  0
  3 37  1  0
  4 38  1  0
  4 39  1  0
  4 40  1  0
  5 41  1  0
  7 42  1  0
  7 43  1  0
  8 44  1  0
  8 45  1  0
  9 46  1  0
 11 47  1  0
 12 48  1  1
 13 49  1  0
 13 50  1  0
 13 51  1  0
 14 52  1  0
 14 53  1  0
 14 54  1  0
 15 55  1  0
 15 56  1  0
 19 57  1  0
 21 58  1  0
 28 59  1  0
 32 60  1  0
 32 61  1  0
 32 62  1  0
M  END
>  <filename_input>  (3) 
8EXL_799_docked.sdf

>  <pdb_id>  (3) 
8EXL_799

>  <pose_rank>  (3) 
2

>  <num_atoms_heavy>  (3) 
34

>  <num_torsions>  (3) 
5

>  <pose>  (3) 
[-17.876768187868198, 15.835039501057635, 31.131389601150637, -2.20762337388774, 5.426666362896365, 2.009266089884306, -6.189641516828348, 0.11143768894698086, -0.07112349910623304, -2.456201650542637, -0.7391589407183364]

>  <energy>  (3) 
-1488.955313543499

>  <inter_energy>  (3) 
-1483.5537242163807

>  <intra_energy>  (3) 
17.508616890298697

>  <rmsd>  (3) 
1.17914

>  <sdf_rank>  (3) 
0

$$$$

     RDKit          3D

 62 66  0  0  0  0  0  0  0  0999 V2000
  -20.2853   18.1815   35.8964 C   0  0  0  0  0  0  0  0  0  0  0  0
  -19.2235   18.6960   34.9716 C   0  0  2  0  0  0  0  0  0  0  0  0
  -17.8426   18.5138   35.6044 C   0  0  0  0  0  0  0  0  0  0  0  0
  -19.4918   20.1764   34.6832 C   0  0  0  0  0  0  0  0  0  0  0  0
  -18.2237   17.2413   33.1720 C   0  0  0  0  0  0  0  0  0  0  0  0
  -17.9221   15.8303   31.0651 C   0  0  0  0  0  0  0  0  0  0  0  0
  -14.1434   15.8998   28.3391 C   0  0  0  0  0  0  0  0  0  0  0  0
  -13.4583   14.5719   28.0469 C   0  0  0  0  0  0  0  0  0  0  0  0
  -14.2845   12.5091   26.8893 C   0  0  0  0  0  0  0  0  0  0  0  0
  -16.4277   14.2912   29.2837 C   0  0  0  0  0  0  0  0  0  0  0  0
  -17.7518   13.9697   29.5694 C   0  0  0  0  0  0  0  0  0  0  0  0
  -17.8023    9.7877   27.1928 C   0  0  1  0  0  0  0  0  0  0  0  0
  -19.0866    9.4845   26.4226 C   0  0  0  0  0  0  0  0  0  0  0  0
  -17.5495    8.7936   28.3267 C   0  0  0  0  0  0  0  0  0  0  0  0
  -20.2737   16.8884   36.3010 N   0  0  0  0  0  0  0  0  0  0  0  0
  -21.1426   18.9405   36.2874 O   0  0  0  0  0  0  0  0  0  0  0  0
  -19.2546   17.9297   33.7191 N   0  0  0  0  0  0  0  0  0  0  0  0
  -18.6909   16.6837   32.0125 C   0  0  0  0  0  0  0  0  0  0  0  0
  -20.0541   17.0288   31.8825 C   0  0  0  0  0  0  0  0  0  0  0  0
  -20.3802   17.7744   32.9033 N   0  0  0  0  0  0  0  0  0  0  0  0
  -16.6133   16.1766   30.7911 C   0  0  0  0  0  0  0  0  0  0  0  0
  -15.8585   15.4312   29.9128 C   0  0  0  0  0  0  0  0  0  0  0  0
  -14.5985   15.8243   29.6917 O   0  0  0  0  0  0  0  0  0  0  0  0
  -14.4503   13.5446   27.7616 N   0  0  0  0  0  0  0  0  0  0  0  0
  -15.4220   11.7644   26.9033 C   0  0  0  0  0  0  0  0  0  0  0  0
  -16.2754   12.3465   27.7783 N   0  0  0  0  0  0  0  0  0  0  0  0
  -15.7276   13.4129   28.3104 C   0  0  0  0  0  0  0  0  0  0  0  0
  -18.4991   14.7195   30.4546 C   0  0  0  0  0  0  0  0  0  0  0  0
  -15.6432   10.5256   26.1299 C   0  0  0  0  0  0  0  0  0  0  0  0
  -14.8414   10.0245   25.2109 N   0  0  0  0  0  0  0  0  0  0  0  0
  -15.3375    8.8826   24.7516 C   0  0  0  0  0  0  0  0  0  0  0  0
  -14.7173    8.0046   23.6878 C   0  0  0  0  0  0  0  0  0  0  0  0
  -16.4534    8.6316   25.3760 N   0  0  0  0  0  0  0  0  0  0  0  0
  -16.6669    9.6734   26.2782 N   0  0  0  0  0  0  0  0  0  0  0  0
  -17.9369   18.5262   36.7002 H   0  0  0  0  0  0  0  0  0  0  0  0
  -17.4166   17.5516   35.2839 H   0  0  0  0  0  0  0  0  0  0  0  0
  -17.1815   19.3325   35.2839 H   0  0  0  0  0  0  0  0  0  0  0  0
  -19.5909   20.7228   35.6327 H   0  0  0  0  0  0  0  0  0  0  0  0
  -18.6549   20.5948   34.1049 H   0  0  0  0  0  0  0  0  0  0  0  0
  -20.4224   20.2745   34.1049 H   0  0  0  0  0  0  0  0  0  0  0  0
  -17.2068   17.1485   33.5810 H   0  0  0  0  0  0  0  0  0  0  0  0
  -13.4315   16.7301   28.2220 H   0  0  0  0  0  0  0  0  0  0  0  0
  -14.9772   16.0819   27.6452 H   0  0  0  0  0  0  0  0  0  0  0  0
  -12.7960   14.6888   27.1764 H   0  0  0  0  0  0  0  0  0  0  0  0
  -12.8724   14.2695   28.9274 H   0  0  0  0  0  0  0  0  0  0  0  0
  -13.3889   12.3115   26.2820 H   0  0  0  0  0  0  0  0  0  0  0  0
  -18.2122   13.0993   29.0791 H   0  0  0  0  0  0  0  0  0  0  0  0
  -17.9125   10.7973   27.6154 H   0  0  0  0  0  0  0  0  0  0  0  0
  -19.9036    9.2916   27.1335 H   0  0  0  0  0  0  0  0  0  0  0  0
  -19.3467   10.3459   25.7900 H   0  0  0  0  0  0  0  0  0  0  0  0
  -18.9341    8.5977   25.7900 H   0  0  0  0  0  0  0  0  0  0  0  0
  -17.6784    9.3006   29.2944 H   0  0  0  0  0  0  0  0  0  0  0  0
  -18.2645    7.9612   28.2508 H   0  0  0  0  0  0  0  0  0  0  0  0
  -16.5236    8.4039   28.2508 H   0  0  0  0  0  0  0  0  0  0  0  0
  -21.0061   16.5411   36.9365 H   0  0  0  0  0  0  0  0  0  0  0  0
  -19.5325   16.2528   35.9731 H   0  0  0  0  0  0  0  0  0  0  0  0
  -20.7235   16.7232   31.0649 H   0  0  0  0  0  0  0  0  0  0  0  0
  -16.1695   17.0567   31.2793 H   0  0  0  0  0  0  0  0  0  0  0  0
  -19.5404   14.4426   30.6760 H   0  0  0  0  0  0  0  0  0  0  0  0
  -14.1461    7.1958   24.1671 H   0  0  0  0  0  0  0  0  0  0  0  0
  -15.5110    7.5714   23.0614 H   0  0  0  0  0  0  0  0  0  0  0  0
  -14.0438    8.6078   23.0614 H   0  0  0  0  0  0  0  0  0  0  0  0
  1  2  1  0
  1 15  1  0
  1 16  2  0
  2  3  1  1
  2  4  1  0
  2 17  1  0
  5 17  1  0
  5 18  2  0
  6 18  1  0
  6 21  1  0
  6 28  2  0
  7  8  1  0
  7 23  1  0
  8 24  1  0
  9 24  1  0
  9 25  2  0
 10 11  2  0
 10 22  1  0
 10 27  1  0
 11 28  1  0
 12 13  1  0
 12 14  1  0
 12 34  1  0
 17 20  1  0
 18 19  1  0
 19 20  2  0
 21 22  2  0
 22 23  1  0
 24 27  1  0
 25 26  1  0
 25 29  1  0
 26 27  2  0
 29 30  2  0
 29 34  1  0
 30 31  1  0
 31 32  1  0
 31 33  2  0
 33 34  1  0
  3 35  1  0
  3 36  1  0
  3 37  1  0
  4 38  1  0
  4 39  1  0
  4 40  1  0
  5 41  1  0
  7 42  1  0
  7 43  1  0
  8 44  1  0
  8 45  1  0
  9 46  1  0
 11 47  1  0
 12 48  1  1
 13 49  1  0
 13 50  1  0
 13 51  1  0
 14 52  1  0
 14 53  1  0
 14 54  1  0
 15 55  1  0
 15 56  1  0
 19 57  1  0
 21 58  1  0
 28 59  1  0
 32 60  1  0
 32 61  1  0
 32 62  1  0
M  END
>  <filename_input>  (4) 
8EXL_799_docked.sdf

>  <pdb_id>  (4) 
8EXL_799

>  <pose_rank>  (4) 
3

>  <num_atoms_heavy>  (4) 
34

>  <num_torsions>  (4) 
5

>  <pose>  (4) 
[-17.922080489180242, 15.830276673586175, 31.065050246967395, -2.7196325235577614, 5.272058912552543, 1.7033237627348532, -0.08652573160513086, 0.170299531559049, -3.6322609998635125, -7.617871062581182, 1.7384123114191679]

>  <energy>  (4) 
-1479.542308077379

>  <inter_energy>  (4) 
-1482.8994785162654

>  <intra_energy>  (4) 
13.427192326939542

>  <rmsd>  (4) 
1.64707

>  <sdf_rank>  (4) 
0

$$$$

     RDKit          3D

 62 66  0  0  0  0  0  0  0  0999 V2000
  -18.1877   18.1967   35.9129 C   0  0  0  0  0  0  0  0  0  0  0  0
  -19.5191   18.3120   35.2336 C   0  0  2  0  0  0  0  0  0  0  0  0
  -19.9417   19.7801   35.1522 C   0  0  0  0  0  0  0  0  0  0  0  0
  -20.5502   17.4984   36.0218 C   0  0  0  0  0  0  0  0  0  0  0  0
  -18.4497   16.9678   33.3886 C   0  0  0  0  0  0  0  0  0  0  0  0
  -17.9624   15.8891   31.1258 C   0  0  0  0  0  0  0  0  0  0  0  0
  -14.1328   15.9423   28.4716 C   0  0  0  0  0  0  0  0  0  0  0  0
  -13.4599   14.6091   28.1749 C   0  0  0  0  0  0  0  0  0  0  0  0
  -14.2916   12.5726   26.9756 C   0  0  0  0  0  0  0  0  0  0  0  0
  -16.4555   14.3528   29.3527 C   0  0  0  0  0  0  0  0  0  0  0  0
  -17.7889   14.0456   29.6096 C   0  0  0  0  0  0  0  0  0  0  0  0
  -18.0671   10.1950   26.7762 C   0  0  1  0  0  0  0  0  0  0  0  0
  -19.2040    9.9930   25.7755 C   0  0  0  0  0  0  0  0  0  0  0  0
  -18.1587    9.2425   27.9686 C   0  0  0  0  0  0  0  0  0  0  0  0
  -17.2541   19.1666   35.7599 N   0  0  0  0  0  0  0  0  0  0  0  0
  -17.9653   17.2337   36.6108 O   0  0  0  0  0  0  0  0  0  0  0  0
  -19.4142   17.7923   33.8639 N   0  0  0  0  0  0  0  0  0  0  0  0
  -18.7375   16.7408   32.0698 C   0  0  0  0  0  0  0  0  0  0  0  0
  -19.9302   17.4306   31.7600 C   0  0  0  0  0  0  0  0  0  0  0  0
  -20.3243   18.0571   32.8353 N   0  0  0  0  0  0  0  0  0  0  0  0
  -16.6443   16.2212   30.8807 C   0  0  0  0  0  0  0  0  0  0  0  0
  -15.8831   15.4770   30.0070 C   0  0  0  0  0  0  0  0  0  0  0  0
  -14.6140   15.8559   29.8144 O   0  0  0  0  0  0  0  0  0  0  0  0
  -14.4599   13.5990   27.8580 N   0  0  0  0  0  0  0  0  0  0  0  0
  -15.4389   11.8432   26.9588 C   0  0  0  0  0  0  0  0  0  0  0  0
  -16.3008   12.4255   27.8253 N   0  0  0  0  0  0  0  0  0  0  0  0
  -15.7490   13.4776   28.3812 C   0  0  0  0  0  0  0  0  0  0  0  0
  -18.5426   14.7941   30.4904 C   0  0  0  0  0  0  0  0  0  0  0  0
  -15.6620   10.6174   26.1654 C   0  0  0  0  0  0  0  0  0  0  0  0
  -14.7659    9.9884   25.4307 N   0  0  0  0  0  0  0  0  0  0  0  0
  -15.3058    8.9040   24.8888 C   0  0  0  0  0  0  0  0  0  0  0  0
  -14.6067    7.9195   23.9782 C   0  0  0  0  0  0  0  0  0  0  0  0
  -16.5468    8.8175   25.2770 N   0  0  0  0  0  0  0  0  0  0  0  0
  -16.7973    9.9073   26.1102 N   0  0  0  0  0  0  0  0  0  0  0  0
  -20.0583   20.1850   36.1683 H   0  0  0  0  0  0  0  0  0  0  0  0
  -19.1723   20.3539   34.6148 H   0  0  0  0  0  0  0  0  0  0  0  0
  -20.8985   19.8569   34.6148 H   0  0  0  0  0  0  0  0  0  0  0  0
  -20.3781   17.6342   37.0998 H   0  0  0  0  0  0  0  0  0  0  0  0
  -21.5629   17.8435   35.7659 H   0  0  0  0  0  0  0  0  0  0  0  0
  -20.4502   16.4333   35.7659 H   0  0  0  0  0  0  0  0  0  0  0  0
  -17.5989   16.5595   33.9538 H   0  0  0  0  0  0  0  0  0  0  0  0
  -13.4078   16.7644   28.3785 H   0  0  0  0  0  0  0  0  0  0  0  0
  -14.9510   16.1445   27.7647 H   0  0  0  0  0  0  0  0  0  0  0  0
  -12.7800   14.7282   27.3185 H   0  0  0  0  0  0  0  0  0  0  0  0
  -12.8947   14.2878   29.0622 H   0  0  0  0  0  0  0  0  0  0  0  0
  -13.3874   12.3707   26.3825 H   0  0  0  0  0  0  0  0  0  0  0  0
  -18.2515   13.1878   29.0995 H   0  0  0  0  0  0  0  0  0  0  0  0
  -18.1371   11.2321   27.1361 H   0  0  0  0  0  0  0  0  0  0  0  0
  -20.1455    9.8257   26.3191 H   0  0  0  0  0  0  0  0  0  0  0  0
  -19.2996   10.8883   25.1435 H   0  0  0  0  0  0  0  0  0  0  0  0
  -18.9853    9.1197   25.1435 H   0  0  0  0  0  0  0  0  0  0  0  0
  -18.1033    9.8191   28.9037 H   0  0  0  0  0  0  0  0  0  0  0  0
  -19.1135    8.6975   27.9300 H   0  0  0  0  0  0  0  0  0  0  0  0
  -17.3254    8.5254   27.9300 H   0  0  0  0  0  0  0  0  0  0  0  0
  -16.3413   19.0814   36.2294 H   0  0  0  0  0  0  0  0  0  0  0  0
  -17.4572   19.9891   35.1741 H   0  0  0  0  0  0  0  0  0  0  0  0
  -20.4378   17.4386   30.7842 H   0  0  0  0  0  0  0  0  0  0  0  0
  -16.1981   17.0890   31.3884 H   0  0  0  0  0  0  0  0  0  0  0  0
  -19.5915   14.5284   30.6888 H   0  0  0  0  0  0  0  0  0  0  0  0
  -14.0756    7.1717   24.5855 H   0  0  0  0  0  0  0  0  0  0  0  0
  -15.3502    7.4153   23.3434 H   0  0  0  0  0  0  0  0  0  0  0  0
  -13.8857    8.4553   23.3434 H   0  0  0  0  0  0  0  0  0  0  0  0
  1  2  1  0
  1 15  1  0
  1 16  2  0
  2  3  1  6
  2  4  1  0
  2 17  1  0
  5 17  1  0
  5 18  2  0
  6 18  1  0
  6 21  1  0
  6 28  2  0
  7  8  1  0
  7 23  1  0
  8 24  1  0
  9 24  1  0
  9 25  2  0
 10 11  2  0
 10 22  1  0
 10 27  1  0
 11 28  1  0
 12 13  1  0
 12 14  1  0
 12 34  1  0
 17 20  1  0
 18 19  1  0
 19 20  2  0
 21 22  2  0
 22 23  1  0
 24 27  1  0
 25 26  1  0
 25 29  1  0
 26 27  2  0
 29 30  2  0
 29 34  1  0
 30 31  1  0
 31 32  1  0
 31 33  2  0
 33 34  1  0
  3 35  1  0
  3 36  1  0
  3 37  1  0
  4 38  1  0
  4 39  1  0
  4 40  1  0
  5 41  1  0
  7 42  1  0
  7 43  1  0
  8 44  1  0
  8 45  1  0
  9 46  1  0
 11 47  1  0
 12 48  1  1
 13 49  1  0
 13 50  1  0
 13 51  1  0
 14 52  1  0
 14 53  1  0
 14 54  1  0
 15 55  1  0
 15 56  1  0
 19 57  1  0
 21 58  1  0
 28 59  1  0
 32 60  1  0
 32 61  1  0
 32 62  1  0
M  END
>  <filename_input>  (5) 
8EXL_799_docked.sdf

>  <pdb_id>  (5) 
8EXL_799

>  <pose_rank>  (5) 
4

>  <num_atoms_heavy>  (5) 
34

>  <num_torsions>  (5) 
5

>  <pose>  (5) 
[-17.962432043857078, 15.889145819188336, 31.125783242641198, -2.765318583098541, 5.116665224992579, 1.98779940949879, 0.13368190446641567, 0.19815029367058482, 2.304375440588588, 1.1525471751329586, 2.1828464813242516]

>  <energy>  (5) 
-1465.7548651790744

>  <inter_energy>  (5) 
-1468.1196903677453

>  <intra_energy>  (5) 
18.564028451754155

>  <rmsd>  (5) 
1.92865

>  <sdf_rank>  (5) 
0

$$$$

     RDKit          3D

 62 66  0  0  0  0  0  0  0  0999 V2000
  -19.9820   19.9341   34.8737 C   0  0  0  0  0  0  0  0  0  0  0  0
  -19.5148   18.5230   35.0679 C   0  0  2  0  0  0  0  0  0  0  0  0
  -20.4923   17.7654   35.9685 C   0  0  0  0  0  0  0  0  0  0  0  0
  -18.1157   18.5450   35.6913 C   0  0  0  0  0  0  0  0  0  0  0  0
  -18.4313   17.1321   33.2662 C   0  0  0  0  0  0  0  0  0  0  0  0
  -18.0127   15.8429   31.1020 C   0  0  0  0  0  0  0  0  0  0  0  0
  -14.2563   16.0479   28.3521 C   0  0  0  0  0  0  0  0  0  0  0  0
  -13.5049   14.7511   28.0843 C   0  0  0  0  0  0  0  0  0  0  0  0
  -14.2290   12.6238   26.9764 C   0  0  0  0  0  0  0  0  0  0  0  0
  -16.4496   14.3445   29.3450 C   0  0  0  0  0  0  0  0  0  0  0  0
  -17.7539   13.9615   29.6457 C   0  0  0  0  0  0  0  0  0  0  0  0
  -17.6524    9.7796   27.2897 C   0  0  1  0  0  0  0  0  0  0  0  0
  -18.8931    9.3361   26.5160 C   0  0  0  0  0  0  0  0  0  0  0  0
  -17.3651    8.8887   28.4985 C   0  0  0  0  0  0  0  0  0  0  0  0
  -20.7094   20.5534   35.8345 N   0  0  0  0  0  0  0  0  0  0  0  0
  -19.6875   20.5159   33.8545 O   0  0  0  0  0  0  0  0  0  0  0  0
  -19.4716   17.8405   33.7680 N   0  0  0  0  0  0  0  0  0  0  0  0
  -18.8200   16.6759   32.0355 C   0  0  0  0  0  0  0  0  0  0  0  0
  -20.1471   17.1038   31.8124 C   0  0  0  0  0  0  0  0  0  0  0  0
  -20.5258   17.8001   32.8496 N   0  0  0  0  0  0  0  0  0  0  0  0
  -16.7250   16.2502   30.8126 C   0  0  0  0  0  0  0  0  0  0  0  0
  -15.9370   15.5259   29.9460 C   0  0  0  0  0  0  0  0  0  0  0  0
  -14.7001   15.9786   29.7088 O   0  0  0  0  0  0  0  0  0  0  0  0
  -14.4438   13.6681   27.8273 N   0  0  0  0  0  0  0  0  0  0  0  0
  -15.3264   11.8218   27.0133 C   0  0  0  0  0  0  0  0  0  0  0  0
  -16.2044   12.3780   27.8808 N   0  0  0  0  0  0  0  0  0  0  0  0
  -15.7099   13.4826   28.3865 C   0  0  0  0  0  0  0  0  0  0  0  0
  -18.5346   14.6908   30.5191 C   0  0  0  0  0  0  0  0  0  0  0  0
  -15.4871   10.5567   26.2681 C   0  0  0  0  0  0  0  0  0  0  0  0
  -14.6440   10.0570   25.3861 N   0  0  0  0  0  0  0  0  0  0  0  0
  -15.0915    8.8884   24.9443 C   0  0  0  0  0  0  0  0  0  0  0  0
  -14.4141    8.0024   23.9227 C   0  0  0  0  0  0  0  0  0  0  0  0
  -16.2168    8.6190   25.5437 N   0  0  0  0  0  0  0  0  0  0  0  0
  -16.4881    9.6770   26.4108 N   0  0  0  0  0  0  0  0  0  0  0  0
  -20.2440   17.9578   37.0227 H   0  0  0  0  0  0  0  0  0  0  0  0
  -21.5181   18.1067   35.7651 H   0  0  0  0  0  0  0  0  0  0  0  0
  -20.4176   16.6869   35.7651 H   0  0  0  0  0  0  0  0  0  0  0  0
  -18.2029   18.5436   36.7878 H   0  0  0  0  0  0  0  0  0  0  0  0
  -17.5557   17.6556   35.3668 H   0  0  0  0  0  0  0  0  0  0  0  0
  -17.5840   19.4516   35.3668 H   0  0  0  0  0  0  0  0  0  0  0  0
  -17.4610   16.9571   33.7541 H   0  0  0  0  0  0  0  0  0  0  0  0
  -13.5889   16.9111   28.2129 H   0  0  0  0  0  0  0  0  0  0  0  0
  -15.1019   16.1716   27.6596 H   0  0  0  0  0  0  0  0  0  0  0  0
  -12.8539   14.8831   27.2075 H   0  0  0  0  0  0  0  0  0  0  0  0
  -12.8998   14.4987   28.9676 H   0  0  0  0  0  0  0  0  0  0  0  0
  -13.3275   12.4595   26.3680 H   0  0  0  0  0  0  0  0  0  0  0  0
  -18.1711   13.0580   29.1769 H   0  0  0  0  0  0  0  0  0  0  0  0
  -17.8399   10.8072   27.6347 H   0  0  0  0  0  0  0  0  0  0  0  0
  -19.6853    9.0529   27.2247 H   0  0  0  0  0  0  0  0  0  0  0  0
  -19.2459   10.1638   25.8832 H   0  0  0  0  0  0  0  0  0  0  0  0
  -18.6413    8.4723   25.8832 H   0  0  0  0  0  0  0  0  0  0  0  0
  -17.5478    9.4554   29.4234 H   0  0  0  0  0  0  0  0  0  0  0  0
  -18.0251    8.0091   28.4709 H   0  0  0  0  0  0  0  0  0  0  0  0
  -16.3155    8.5605   28.4709 H   0  0  0  0  0  0  0  0  0  0  0  0
  -21.0274   21.5231   35.6949 H   0  0  0  0  0  0  0  0  0  0  0  0
  -20.9444   20.0546   36.7044 H   0  0  0  0  0  0  0  0  0  0  0  0
  -20.7549   16.8882   30.9213 H   0  0  0  0  0  0  0  0  0  0  0  0
  -16.3249   17.1625   31.2791 H   0  0  0  0  0  0  0  0  0  0  0  0
  -19.5590   14.3653   30.7527 H   0  0  0  0  0  0  0  0  0  0  0  0
  -13.8244    7.2311   24.4397 H   0  0  0  0  0  0  0  0  0  0  0  0
  -15.1762    7.5204   23.2927 H   0  0  0  0  0  0  0  0  0  0  0  0
  -13.7492    8.6114   23.2927 H   0  0  0  0  0  0  0  0  0  0  0  0
  1  2  1  0
  1 15  1  0
  1 16  2  0
  2  3  1  1
  2  4  1  0
  2 17  1  0
  5 17  1  0
  5 18  2  0
  6 18  1  0
  6 21  1  0
  6 28  2  0
  7  8  1  0
  7 23  1  0
  8 24  1  0
  9 24  1  0
  9 25  2  0
 10 11  2  0
 10 22  1  0
 10 27  1  0
 11 28  1  0
 12 13  1  0
 12 14  1  0
 12 34  1  0
 17 20  1  0
 18 19  1  0
 19 20  2  0
 21 22  2  0
 22 23  1  0
 24 27  1  0
 25 26  1  0
 25 29  1  0
 26 27  2  0
 29 30  2  0
 29 34  1  0
 30 31  1  0
 31 32  1  0
 31 33  2  0
 33 34  1  0
  3 35  1  0
  3 36  1  0
  3 37  1  0
  4 38  1  0
  4 39  1  0
  4 40  1  0
  5 41  1  0
  7 42  1  0
  7 43  1  0
  8 44  1  0
  8 45  1  0
  9 46  1  0
 11 47  1  0
 12 48  1  1
 13 49  1  0
 13 50  1  0
 13 51  1  0
 14 52  1  0
 14 53  1  0
 14 54  1  0
 15 55  1  0
 15 56  1  0
 19 57  1  0
 21 58  1  0
 28 59  1  0
 32 60  1  0
 32 61  1  0
 32 62  1  0
M  END
>  <filename_input>  (6) 
8EXL_799_docked.sdf

>  <pdb_id>  (6) 
8EXL_799

>  <pose_rank>  (6) 
5

>  <num_atoms_heavy>  (6) 
34

>  <num_torsions>  (6) 
5

>  <pose>  (6) 
[-18.012715189988896, 15.842863611259203, 31.101984049223276, -1.9205131813835232, 5.710615303504259, -1.4080817933300709, -0.046325955011776415, 0.22844720908668273, 2.4855467533741016, 3.0831438928757264, -3.008217638144297]

>  <energy>  (6) 
-1460.7377965464443

>  <inter_energy>  (6) 
-1456.3229596757099

>  <intra_energy>  (6) 
20.425204963345315

>  <rmsd>  (6) 
1.61249

>  <sdf_rank>  (6) 
0

$$$$

     RDKit          3D

 62 66  0  0  0  0  0  0  0  0999 V2000
  -21.3805   18.7834   34.9285 C   0  0  0  0  0  0  0  0  0  0  0  0
  -21.5393   17.8189   33.7920 C   0  0  2  0  0  0  0  0  0  0  0  0
  -22.3522   18.4622   32.6669 C   0  0  0  0  0  0  0  0  0  0  0  0
  -22.2384   16.5567   34.3066 C   0  0  0  0  0  0  0  0  0  0  0  0
  -19.9553   16.5832   32.2693 C   0  0  0  0  0  0  0  0  0  0  0  0
  -17.8359   15.7527   31.1118 C   0  0  0  0  0  0  0  0  0  0  0  0
  -14.0476   15.8958   28.4022 C   0  0  0  0  0  0  0  0  0  0  0  0
  -13.3772   14.5738   28.0542 C   0  0  0  0  0  0  0  0  0  0  0  0
  -14.2238   12.5736   26.8054 C   0  0  0  0  0  0  0  0  0  0  0  0
  -16.3539   14.2750   29.2692 C   0  0  0  0  0  0  0  0  0  0  0  0
  -17.6826   13.9572   29.5370 C   0  0  0  0  0  0  0  0  0  0  0  0
  -13.2080   10.0061   25.5151 C   0  0  1  0  0  0  0  0  0  0  0  0
  -12.5565    8.6792   25.1283 C   0  0  0  0  0  0  0  0  0  0  0  0
  -12.8051   11.1508   24.5850 C   0  0  0  0  0  0  0  0  0  0  0  0
  -21.4416   18.3483   36.2102 N   0  0  0  0  0  0  0  0  0  0  0  0
  -21.1822   19.9518   34.6845 O   0  0  0  0  0  0  0  0  0  0  0  0
  -20.2158   17.4737   33.2568 N   0  0  0  0  0  0  0  0  0  0  0  0
  -18.5978   16.5731   32.0934 C   0  0  0  0  0  0  0  0  0  0  0  0
  -18.0366   17.5115   32.9871 C   0  0  0  0  0  0  0  0  0  0  0  0
  -19.0089   18.0410   33.6786 N   0  0  0  0  0  0  0  0  0  0  0  0
  -16.5223   16.0950   30.8569 C   0  0  0  0  0  0  0  0  0  0  0  0
  -15.7734   15.3796   29.9491 C   0  0  0  0  0  0  0  0  0  0  0  0
  -14.5080   15.7669   29.7490 O   0  0  0  0  0  0  0  0  0  0  0  0
  -14.3803   13.5719   27.7216 N   0  0  0  0  0  0  0  0  0  0  0  0
  -15.3701   11.8426   26.7837 C   0  0  0  0  0  0  0  0  0  0  0  0
  -16.2195   12.3961   27.6809 N   0  0  0  0  0  0  0  0  0  0  0  0
  -15.6609   13.4317   28.2605 C   0  0  0  0  0  0  0  0  0  0  0  0
  -18.4240   14.6766   30.4519 C   0  0  0  0  0  0  0  0  0  0  0  0
  -15.6033   10.6414   25.9563 C   0  0  0  0  0  0  0  0  0  0  0  0
  -16.7746   10.1679   25.5789 N   0  0  0  0  0  0  0  0  0  0  0  0
  -16.6044    9.0976   24.8131 C   0  0  0  0  0  0  0  0  0  0  0  0
  -17.7010    8.2666   24.1853 C   0  0  0  0  0  0  0  0  0  0  0  0
  -15.3267    8.8787   24.6802 N   0  0  0  0  0  0  0  0  0  0  0  0
  -14.6595    9.8685   25.4014 N   0  0  0  0  0  0  0  0  0  0  0  0
  -23.1450   19.0898   33.1000 H   0  0  0  0  0  0  0  0  0  0  0  0
  -21.6906   19.0840   32.0459 H   0  0  0  0  0  0  0  0  0  0  0  0
  -22.8054   17.6755   32.0459 H   0  0  0  0  0  0  0  0  0  0  0  0
  -22.2369   16.5594   35.4066 H   0  0  0  0  0  0  0  0  0  0  0  0
  -23.2758   16.5374   33.9413 H   0  0  0  0  0  0  0  0  0  0  0  0
  -21.7044   15.6670   33.9413 H   0  0  0  0  0  0  0  0  0  0  0  0
  -20.6928   15.9838   31.7155 H   0  0  0  0  0  0  0  0  0  0  0  0
  -13.3255   16.7219   28.3234 H   0  0  0  0  0  0  0  0  0  0  0  0
  -14.8769   16.1180   27.7145 H   0  0  0  0  0  0  0  0  0  0  0  0
  -12.7107   14.7207   27.1916 H   0  0  0  0  0  0  0  0  0  0  0  0
  -12.7979   14.2264   28.9224 H   0  0  0  0  0  0  0  0  0  0  0  0
  -13.3286   12.3920   26.1926 H   0  0  0  0  0  0  0  0  0  0  0  0
  -18.1516   13.1146   29.0078 H   0  0  0  0  0  0  0  0  0  0  0  0
  -12.8783   10.2390   26.5384 H   0  0  0  0  0  0  0  0  0  0  0  0
  -12.2845    8.1251   26.0388 H   0  0  0  0  0  0  0  0  0  0  0  0
  -13.2642    8.0828   24.5338 H   0  0  0  0  0  0  0  0  0  0  0  0
  -11.6518    8.8745   24.5338 H   0  0  0  0  0  0  0  0  0  0  0  0
  -12.4991   12.0204   25.1851 H   0  0  0  0  0  0  0  0  0  0  0  0
  -11.9660   10.8296   23.9504 H   0  0  0  0  0  0  0  0  0  0  0  0
  -13.6605   11.4259   23.9504 H   0  0  0  0  0  0  0  0  0  0  0  0
  -21.3317   19.0162   36.9866 H   0  0  0  0  0  0  0  0  0  0  0  0
  -21.5980   17.3497   36.4081 H   0  0  0  0  0  0  0  0  0  0  0  0
  -16.9679   17.7537   33.0835 H   0  0  0  0  0  0  0  0  0  0  0  0
  -16.0697   16.9476   31.3844 H   0  0  0  0  0  0  0  0  0  0  0  0
  -19.4692   14.4027   30.6580 H   0  0  0  0  0  0  0  0  0  0  0  0
  -18.3100    7.8051   24.9767 H   0  0  0  0  0  0  0  0  0  0  0  0
  -18.3378    8.9109   23.5614 H   0  0  0  0  0  0  0  0  0  0  0  0
  -17.2529    7.4793   23.5614 H   0  0  0  0  0  0  0  0  0  0  0  0
  1  2  1  0
  1 15  1  0
  1 16  2  0
  2  3  1  6
  2  4  1  0
  2 17  1  0
  5 17  1  0
  5 18  2  0
  6 18  1  0
  6 21  1  0
  6 28  2  0
  7  8  1  0
  7 23  1  0
  8 24  1  0
  9 24  1  0
  9 25  2  0
 10 11  2  0
 10 22  1  0
 10 27  1  0
 11 28  1  0
 12 13  1  0
 12 14  1  0
 12 34  1  0
 17 20  1  0
 18 19  1  0
 19 20  2  0
 21 22  2  0
 22 23  1  0
 24 27  1  0
 25 26  1  0
 25 29  1  0
 26 27  2  0
 29 30  2  0
 29 34  1  0
 30 31  1  0
 31 32  1  0
 31 33  2  0
 33 34  1  0
  3 35  1  0
  3 36  1  0
  3 37  1  0
  4 38  1  0
  4 39  1  0
  4 40  1  0
  5 41  1  0
  7 42  1  0
  7 43  1  0
  8 44  1  0
  8 45  1  0
  9 46  1  0
 11 47  1  0
 12 48  1  1
 13 49  1  0
 13 50  1  0
 13 51  1  0
 14 52  1  0
 14 53  1  0
 14 54  1  0
 15 55  1  0
 15 56  1  0
 19 57  1  0
 21 58  1  0
 28 59  1  0
 32 60  1  0
 32 61  1  0
 32 62  1  0
M  END
>  <filename_input>  (7) 
8EXL_799_docked.sdf

>  <pdb_id>  (7) 
8EXL_799

>  <pose_rank>  (7) 
6

>  <num_atoms_heavy>  (7) 
34

>  <num_torsions>  (7) 
5

>  <pose>  (7) 
[-17.83591106702455, 15.752671732055665, 31.11184659834595, -3.997487183482035, 4.242328586113852, 1.9345540168561963, -2.6921533305200573, 6.937993107010229, -0.0466775862555288, -2.3832558685916423, -1.0490528331938958]

>  <energy>  (7) 
-1371.5221866115544

>  <inter_energy>  (7) 
-1409.4787809153802

>  <intra_energy>  (7) 
46.02516060464622

>  <rmsd>  (7) 
2.29109

>  <sdf_rank>  (7) 
0

$$$$

     RDKit          3D

 62 66  0  0  0  0  0  0  0  0999 V2000
  -22.1198   18.7860   33.8753 C   0  0  0  0  0  0  0  0  0  0  0  0
  -21.5096   17.4606   34.2188 C   0  0  2  0  0  0  0  0  0  0  0  0
  -22.4715   16.3288   33.8523 C   0  0  0  0  0  0  0  0  0  0  0  0
  -21.1933   17.4335   35.7174 C   0  0  0  0  0  0  0  0  0  0  0  0
  -19.9814   16.2296   32.6364 C   0  0  0  0  0  0  0  0  0  0  0  0
  -17.9880   15.5932   31.1726 C   0  0  0  0  0  0  0  0  0  0  0  0
  -14.2125   15.5728   28.4414 C   0  0  0  0  0  0  0  0  0  0  0  0
  -13.5586   14.2292   28.1496 C   0  0  0  0  0  0  0  0  0  0  0  0
  -14.4338   12.1849   26.9953 C   0  0  0  0  0  0  0  0  0  0  0  0
  -16.5320   14.0182   29.3908 C   0  0  0  0  0  0  0  0  0  0  0  0
  -17.8628   13.7277   29.6787 C   0  0  0  0  0  0  0  0  0  0  0  0
  -13.4592    9.6460   25.6663 C   0  0  1  0  0  0  0  0  0  0  0  0
  -12.8085    8.4532   24.9674 C   0  0  0  0  0  0  0  0  0  0  0  0
  -13.1766   10.9692   24.9541 C   0  0  0  0  0  0  0  0  0  0  0  0
  -21.9600   19.8485   34.7007 N   0  0  0  0  0  0  0  0  0  0  0  0
  -22.7435   18.8966   32.8443 O   0  0  0  0  0  0  0  0  0  0  0  0
  -20.2751   17.2768   33.4445 N   0  0  0  0  0  0  0  0  0  0  0  0
  -18.7356   16.4650   32.1202 C   0  0  0  0  0  0  0  0  0  0  0  0
  -18.2875   17.7090   32.6161 C   0  0  0  0  0  0  0  0  0  0  0  0
  -19.2110   18.1838   33.4073 N   0  0  0  0  0  0  0  0  0  0  0  0
  -16.6720   15.9089   30.8965 C   0  0  0  0  0  0  0  0  0  0  0  0
  -15.9358   15.1455   30.0180 C   0  0  0  0  0  0  0  0  0  0  0  0
  -14.6673   15.5092   29.7947 O   0  0  0  0  0  0  0  0  0  0  0  0
  -14.5744   13.2248   27.8667 N   0  0  0  0  0  0  0  0  0  0  0  0
  -15.5882   11.4666   27.0115 C   0  0  0  0  0  0  0  0  0  0  0  0
  -16.4267   12.0691   27.8871 N   0  0  0  0  0  0  0  0  0  0  0  0
  -15.8537   13.1231   28.4174 C   0  0  0  0  0  0  0  0  0  0  0  0
  -18.5914   14.4954   30.5641 C   0  0  0  0  0  0  0  0  0  0  0  0
  -15.8390   10.2325   26.2397 C   0  0  0  0  0  0  0  0  0  0  0  0
  -17.0178    9.7158   25.9535 N   0  0  0  0  0  0  0  0  0  0  0  0
  -16.8660    8.6252   25.2130 C   0  0  0  0  0  0  0  0  0  0  0  0
  -17.9760    7.7448   24.6838 C   0  0  0  0  0  0  0  0  0  0  0  0
  -15.5935    8.4357   25.0055 N   0  0  0  0  0  0  0  0  0  0  0  0
  -14.9105    9.4665   25.6504 N   0  0  0  0  0  0  0  0  0  0  0  0
  -22.8629   15.8682   34.7714 H   0  0  0  0  0  0  0  0  0  0  0  0
  -23.3060   16.7338   33.2610 H   0  0  0  0  0  0  0  0  0  0  0  0
  -21.9373   15.5705   33.2610 H   0  0  0  0  0  0  0  0  0  0  0  0
  -22.1284   17.5135   36.2910 H   0  0  0  0  0  0  0  0  0  0  0  0
  -20.6887   16.4889   35.9686 H   0  0  0  0  0  0  0  0  0  0  0  0
  -20.5355   18.2786   35.9686 H   0  0  0  0  0  0  0  0  0  0  0  0
  -20.6210   15.3578   32.4341 H   0  0  0  0  0  0  0  0  0  0  0  0
  -13.4818   16.3864   28.3225 H   0  0  0  0  0  0  0  0  0  0  0  0
  -15.0429   15.7734   27.7484 H   0  0  0  0  0  0  0  0  0  0  0  0
  -12.8951   14.3299   27.2781 H   0  0  0  0  0  0  0  0  0  0  0  0
  -12.9787   13.9143   29.0296 H   0  0  0  0  0  0  0  0  0  0  0  0
  -13.5439   11.9661   26.3869 H   0  0  0  0  0  0  0  0  0  0  0  0
  -18.3438   12.8677   29.1898 H   0  0  0  0  0  0  0  0  0  0  0  0
  -13.0435    9.6875   26.6838 H   0  0  0  0  0  0  0  0  0  0  0  0
  -12.4252    7.7506   25.7220 H   0  0  0  0  0  0  0  0  0  0  0  0
  -13.5544    7.9451   24.3386 H   0  0  0  0  0  0  0  0  0  0  0  0
  -11.9775    8.8053   24.3386 H   0  0  0  0  0  0  0  0  0  0  0  0
  -13.0079   11.7589   25.7010 H   0  0  0  0  0  0  0  0  0  0  0  0
  -12.2809   10.8626   24.3244 H   0  0  0  0  0  0  0  0  0  0  0  0
  -14.0376   11.2379   24.3244 H   0  0  0  0  0  0  0  0  0  0  0  0
  -22.3819   20.7565   34.4590 H   0  0  0  0  0  0  0  0  0  0  0  0
  -21.4167   19.7482   35.5700 H   0  0  0  0  0  0  0  0  0  0  0  0
  -17.3288   18.1928   32.3777 H   0  0  0  0  0  0  0  0  0  0  0  0
  -16.2073   16.7790   31.3832 H   0  0  0  0  0  0  0  0  0  0  0  0
  -19.6385   14.2428   30.7872 H   0  0  0  0  0  0  0  0  0  0  0  0
  -18.5294    7.3059   25.5270 H   0  0  0  0  0  0  0  0  0  0  0  0
  -18.6611    8.3478   24.0697 H   0  0  0  0  0  0  0  0  0  0  0  0
  -17.5449    6.9404   24.0697 H   0  0  0  0  0  0  0  0  0  0  0  0
  1  2  1  0
  1 15  1  0
  1 16  2  0
  2  3  1  1
  2  4  1  0
  2 17  1  0
  5 17  1  0
  5 18  2  0
  6 18  1  0
  6 21  1  0
  6 28  2  0
  7  8  1  0
  7 23  1  0
  8 24  1  0
  9 24  1  0
  9 25  2  0
 10 11  2  0
 10 22  1  0
 10 27  1  0
 11 28  1  0
 12 13  1  0
 12 14  1  0
 12 34  1  0
 17 20  1  0
 18 19  1  0
 19 20  2  0
 21 22  2  0
 22 23  1  0
 24 27  1  0
 25 26  1  0
 25 29  1  0
 26 27  2  0
 29 30  2  0
 29 34  1  0
 30 31  1  0
 31 32  1  0
 31 33  2  0
 33 34  1  0
  3 35  1  0
  3 36  1  0
  3 37  1  0
  4 38  1  0
  4 39  1  0
  4 40  1  0
  5 41  1  0
  7 42  1  0
  7 43  1  0
  8 44  1  0
  8 45  1  0
  9 46  1  0
 11 47  1  0
 12 48  1  1
 13 49  1  0
 13 50  1  0
 13 51  1  0
 14 52  1  0
 14 53  1  0
 14 54  1  0
 15 55  1  0
 15 56  1  0
 19 57  1  0
 21 58  1  0
 28 59  1  0
 32 60  1  0
 32 61  1  0
 32 62  1  0
M  END
>  <filename_input>  (8) 
8EXL_799_docked.sdf

>  <pdb_id>  (8) 
8EXL_799

>  <pose_rank>  (8) 
7

>  <num_atoms_heavy>  (8) 
34

>  <num_torsions>  (8) 
5

>  <pose>  (8) 
[-17.98799963327349, 15.593155270276155, 31.172631657566733, -2.4473590684387343, 4.915464105566249, 2.8027671689238205, -2.7634363641418775, -5.393319310830512, 0.35926083897975003, 4.914379753517324, 11.504469153801505]

>  <energy>  (8) 
-1253.5642643521953

>  <inter_energy>  (8) 
-1306.1751803450193

>  <intra_energy>  (8) 
66.06840276115325

>  <rmsd>  (8) 
2.07852

>  <sdf_rank>  (8) 
0

$$$$

     RDKit          3D

 62 66  0  0  0  0  0  0  0  0999 V2000
  -22.5010   18.1158   32.5734 C   0  0  0  0  0  0  0  0  0  0  0  0
  -21.4810   18.0973   33.6719 C   0  0  2  0  0  0  0  0  0  0  0  0
  -21.8553   17.0458   34.7182 C   0  0  0  0  0  0  0  0  0  0  0  0
  -21.4123   19.4889   34.3085 C   0  0  0  0  0  0  0  0  0  0  0  0
  -19.9243   16.7685   32.2002 C   0  0  0  0  0  0  0  0  0  0  0  0
  -17.8300   15.8893   31.0333 C   0  0  0  0  0  0  0  0  0  0  0  0
  -14.0426   15.8137   28.3195 C   0  0  0  0  0  0  0  0  0  0  0  0
  -13.3976   14.4624   28.0438 C   0  0  0  0  0  0  0  0  0  0  0  0
  -14.2831   12.4136   26.9056 C   0  0  0  0  0  0  0  0  0  0  0  0
  -16.3780   14.2860   29.2735 C   0  0  0  0  0  0  0  0  0  0  0  0
  -17.7122   14.0084   29.5582 C   0  0  0  0  0  0  0  0  0  0  0  0
  -17.6099    9.5610   27.5305 C   0  0  1  0  0  0  0  0  0  0  0  0
  -16.8824    9.8197   28.8490 C   0  0  0  0  0  0  0  0  0  0  0  0
  -18.6128   10.6630   27.1877 C   0  0  0  0  0  0  0  0  0  0  0  0
  -23.7055   17.5200   32.7466 N   0  0  0  0  0  0  0  0  0  0  0  0
  -22.2387   18.6828   31.5372 O   0  0  0  0  0  0  0  0  0  0  0  0
  -20.1706   17.7378   33.1144 N   0  0  0  0  0  0  0  0  0  0  0  0
  -18.5752   16.7760   31.9689 C   0  0  0  0  0  0  0  0  0  0  0  0
  -18.0057   17.8048   32.7508 C   0  0  0  0  0  0  0  0  0  0  0  0
  -18.9644   18.3705   33.4327 N   0  0  0  0  0  0  0  0  0  0  0  0
  -16.5104   16.1924   30.7601 C   0  0  0  0  0  0  0  0  0  0  0  0
  -15.7761   15.4149   29.8924 C   0  0  0  0  0  0  0  0  0  0  0  0
  -14.5039   15.7668   29.6713 O   0  0  0  0  0  0  0  0  0  0  0  0
  -14.4197   13.4629   27.7662 N   0  0  0  0  0  0  0  0  0  0  0  0
  -15.4430   11.7042   26.9236 C   0  0  0  0  0  0  0  0  0  0  0  0
  -16.2808   12.3215   27.7895 N   0  0  0  0  0  0  0  0  0  0  0  0
  -15.7022   13.3763   28.3120 C   0  0  0  0  0  0  0  0  0  0  0  0
  -18.4389   14.7902   30.4328 C   0  0  0  0  0  0  0  0  0  0  0  0
  -15.6996   10.4644   26.1628 C   0  0  0  0  0  0  0  0  0  0  0  0
  -15.0208   10.0346   25.1174 N   0  0  0  0  0  0  0  0  0  0  0  0
  -15.5054    8.8676   24.7120 C   0  0  0  0  0  0  0  0  0  0  0  0
  -15.0031    8.0511   23.5423 C   0  0  0  0  0  0  0  0  0  0  0  0
  -16.4897    8.5296   25.4963 N   0  0  0  0  0  0  0  0  0  0  0  0
  -16.6277    9.5404   26.4472 N   0  0  0  0  0  0  0  0  0  0  0  0
  -21.7071   17.4621   35.7256 H   0  0  0  0  0  0  0  0  0  0  0  0
  -22.9100   16.7608   34.5908 H   0  0  0  0  0  0  0  0  0  0  0  0
  -21.2177   16.1585   34.5908 H   0  0  0  0  0  0  0  0  0  0  0  0
  -21.4171   19.3915   35.4041 H   0  0  0  0  0  0  0  0  0  0  0  0
  -20.4881   19.9929   33.9892 H   0  0  0  0  0  0  0  0  0  0  0  0
  -22.2822   20.0815   33.9892 H   0  0  0  0  0  0  0  0  0  0  0  0
  -20.6660   16.1035   31.7336 H   0  0  0  0  0  0  0  0  0  0  0  0
  -13.3052   16.6205   28.1960 H   0  0  0  0  0  0  0  0  0  0  0  0
  -14.8684   16.0137   27.6209 H   0  0  0  0  0  0  0  0  0  0  0  0
  -12.7294   14.5496   27.1744 H   0  0  0  0  0  0  0  0  0  0  0  0
  -12.8240   14.1518   28.9295 H   0  0  0  0  0  0  0  0  0  0  0  0
  -13.3921   12.1821   26.3034 H   0  0  0  0  0  0  0  0  0  0  0  0
  -18.1976   13.1472   29.0756 H   0  0  0  0  0  0  0  0  0  0  0  0
  -18.1457    8.6068   27.6417 H   0  0  0  0  0  0  0  0  0  0  0  0
  -17.5510    9.5820   29.6895 H   0  0  0  0  0  0  0  0  0  0  0  0
  -15.9853    9.1855   28.9033 H   0  0  0  0  0  0  0  0  0  0  0  0
  -16.5871   10.8780   28.9033 H   0  0  0  0  0  0  0  0  0  0  0  0
  -19.0098   11.0993   28.1161 H   0  0  0  0  0  0  0  0  0  0  0  0
  -18.1108   11.4458   26.6001 H   0  0  0  0  0  0  0  0  0  0  0  0
  -19.4393   10.2368   26.6001 H   0  0  0  0  0  0  0  0  0  0  0  0
  -24.4019   17.5363   31.9879 H   0  0  0  0  0  0  0  0  0  0  0  0
  -23.9247   17.0508   33.6369 H   0  0  0  0  0  0  0  0  0  0  0  0
  -16.9413   18.0810   32.7802 H   0  0  0  0  0  0  0  0  0  0  0  0
  -16.0413   17.0637   31.2404 H   0  0  0  0  0  0  0  0  0  0  0  0
  -19.4889   14.5476   30.6536 H   0  0  0  0  0  0  0  0  0  0  0  0
  -14.4610    7.1699   23.9161 H   0  0  0  0  0  0  0  0  0  0  0  0
  -15.8564    7.7241   22.9300 H   0  0  0  0  0  0  0  0  0  0  0  0
  -14.3265    8.6653   22.9300 H   0  0  0  0  0  0  0  0  0  0  0  0
  1  2  1  0
  1 15  1  0
  1 16  2  0
  2  3  1  1
  2  4  1  0
  2 17  1  0
  5 17  1  0
  5 18  2  0
  6 18  1  0
  6 21  1  0
  6 28  2  0
  7  8  1  0
  7 23  1  0
  8 24  1  0
  9 24  1  0
  9 25  2  0
 10 11  2  0
 10 22  1  0
 10 27  1  0
 11 28  1  0
 12 13  1  0
 12 14  1  0
 12 34  1  0
 17 20  1  0
 18 19  1  0
 19 20  2  0
 21 22  2  0
 22 23  1  0
 24 27  1  0
 25 26  1  0
 25 29  1  0
 26 27  2  0
 29 30  2  0
 29 34  1  0
 30 31  1  0
 31 32  1  0
 31 33  2  0
 33 34  1  0
  3 35  1  0
  3 36  1  0
  3 37  1  0
  4 38  1  0
  4 39  1  0
  4 40  1  0
  5 41  1  0
  7 42  1  0
  7 43  1  0
  8 44  1  0
  8 45  1  0
  9 46  1  0
 11 47  1  0
 12 48  1  1
 13 49  1  0
 13 50  1  0
 13 51  1  0
 14 52  1  0
 14 53  1  0
 14 54  1  0
 15 55  1  0
 15 56  1  0
 19 57  1  0
 21 58  1  0
 28 59  1  0
 32 60  1  0
 32 61  1  0
 32 62  1  0
M  END
>  <filename_input>  (9) 
8EXL_799_docked.sdf

>  <pdb_id>  (9) 
8EXL_799

>  <pose_rank>  (9) 
8

>  <num_atoms_heavy>  (9) 
34

>  <num_torsions>  (9) 
5

>  <pose>  (9) 
[-17.829956790867147, 15.889262307260257, 31.033291515751102, -1.8640466857909725, 5.0083747639689, 3.066179998547515, -0.27824170952046706, 3.215110668968182, -6.259481939919436, 0.07315647214925004, 3.037345112657831]

>  <energy>  (9) 
-1416.0670286180227

>  <inter_energy>  (9) 
-1474.0612502538927

>  <intra_energy>  (9) 
86.11688291157154

>  <rmsd>  (9) 
0.725258

>  <sdf_rank>  (9) 
0

$$$$

     RDKit          3D

 62 66  0  0  0  0  0  0  0  0999 V2000
  -20.7349   17.8561   35.6906 C   0  0  0  0  0  0  0  0  0  0  0  0
  -21.2807   17.5360   34.3316 C   0  0  2  0  0  0  0  0  0  0  0  0
  -22.2280   18.6457   33.8714 C   0  0  0  0  0  0  0  0  0  0  0  0
  -22.0157   16.1936   34.3957 C   0  0  0  0  0  0  0  0  0  0  0  0
  -19.7683   16.3460   32.7033 C   0  0  0  0  0  0  0  0  0  0  0  0
  -17.9340   15.8448   30.9988 C   0  0  0  0  0  0  0  0  0  0  0  0
  -14.0752   15.8139   28.3867 C   0  0  0  0  0  0  0  0  0  0  0  0
  -13.4117   14.4694   28.1221 C   0  0  0  0  0  0  0  0  0  0  0  0
  -14.2491   12.4188   26.9513 C   0  0  0  0  0  0  0  0  0  0  0  0
  -16.4222   14.2622   29.2710 C   0  0  0  0  0  0  0  0  0  0  0  0
  -17.7611   13.9721   29.5188 C   0  0  0  0  0  0  0  0  0  0  0  0
  -17.6174    9.5753   27.4252 C   0  0  1  0  0  0  0  0  0  0  0  0
  -16.9560    9.7902   28.7857 C   0  0  0  0  0  0  0  0  0  0  0  0
  -18.5695   10.7111   27.0496 C   0  0  0  0  0  0  0  0  0  0  0  0
  -21.5683   18.2167   36.6962 N   0  0  0  0  0  0  0  0  0  0  0  0
  -19.5427   17.7731   35.8798 O   0  0  0  0  0  0  0  0  0  0  0  0
  -20.1745   17.4542   33.3688 N   0  0  0  0  0  0  0  0  0  0  0  0
  -18.7114   16.7208   31.9183 C   0  0  0  0  0  0  0  0  0  0  0  0
  -18.5025   18.1052   32.1023 C   0  0  0  0  0  0  0  0  0  0  0  0
  -19.3777   18.5329   32.9713 N   0  0  0  0  0  0  0  0  0  0  0  0
  -16.6103   16.1602   30.7623 C   0  0  0  0  0  0  0  0  0  0  0  0
  -15.8465   15.3931   29.9109 C   0  0  0  0  0  0  0  0  0  0  0  0
  -14.5719   15.7567   29.7255 O   0  0  0  0  0  0  0  0  0  0  0  0
  -14.4175   13.4628   27.8128 N   0  0  0  0  0  0  0  0  0  0  0  0
  -15.4030   11.6997   26.9351 C   0  0  0  0  0  0  0  0  0  0  0  0
  -16.2688   12.3057   27.7811 N   0  0  0  0  0  0  0  0  0  0  0  0
  -15.7133   13.3629   28.3237 C   0  0  0  0  0  0  0  0  0  0  0  0
  -18.5174   14.7436   30.3773 C   0  0  0  0  0  0  0  0  0  0  0  0
  -15.6288   10.4615   26.1620 C   0  0  0  0  0  0  0  0  0  0  0  0
  -14.8983   10.0251   25.1548 N   0  0  0  0  0  0  0  0  0  0  0  0
  -15.3702    8.8619   24.7244 C   0  0  0  0  0  0  0  0  0  0  0  0
  -14.8125    8.0402   23.5837 C   0  0  0  0  0  0  0  0  0  0  0  0
  -16.3981    8.5328   25.4547 N   0  0  0  0  0  0  0  0  0  0  0  0
  -16.5786    9.5455   26.3964 N   0  0  0  0  0  0  0  0  0  0  0  0
  -22.6577   19.1488   34.7502 H   0  0  0  0  0  0  0  0  0  0  0  0
  -21.6708   19.3762   33.2666 H   0  0  0  0  0  0  0  0  0  0  0  0
  -23.0369   18.2098   33.2666 H   0  0  0  0  0  0  0  0  0  0  0  0
  -22.1708   15.9103   35.4472 H   0  0  0  0  0  0  0  0  0  0  0  0
  -22.9898   16.2845   33.8929 H   0  0  0  0  0  0  0  0  0  0  0  0
  -21.4142   15.4219   33.8929 H   0  0  0  0  0  0  0  0  0  0  0  0
  -20.2041   15.3389   32.7793 H   0  0  0  0  0  0  0  0  0  0  0  0
  -13.3417   16.6275   28.2866 H   0  0  0  0  0  0  0  0  0  0  0  0
  -14.8837   16.0105   27.6672 H   0  0  0  0  0  0  0  0  0  0  0  0
  -12.7213   14.5664   27.2712 H   0  0  0  0  0  0  0  0  0  0  0  0
  -12.8592   14.1593   29.0214 H   0  0  0  0  0  0  0  0  0  0  0  0
  -13.3405   12.1977   26.3720 H   0  0  0  0  0  0  0  0  0  0  0  0
  -18.2261   13.1093   29.0194 H   0  0  0  0  0  0  0  0  0  0  0  0
  -18.1845    8.6349   27.4893 H   0  0  0  0  0  0  0  0  0  0  0  0
  -17.6756    9.5564   29.5842 H   0  0  0  0  0  0  0  0  0  0  0  0
  -16.0806    9.1304   28.8762 H   0  0  0  0  0  0  0  0  0  0  0  0
  -16.6358   10.8387   28.8762 H   0  0  0  0  0  0  0  0  0  0  0  0
  -18.9615   11.1788   27.9648 H   0  0  0  0  0  0  0  0  0  0  0  0
  -18.0277   11.4628   26.4568 H   0  0  0  0  0  0  0  0  0  0  0  0
  -19.4043   10.3089   26.4568 H   0  0  0  0  0  0  0  0  0  0  0  0
  -21.1870   18.4353   37.6277 H   0  0  0  0  0  0  0  0  0  0  0  0
  -22.5832   18.2721   36.5292 H   0  0  0  0  0  0  0  0  0  0  0  0
  -17.7368   18.7158   31.6015 H   0  0  0  0  0  0  0  0  0  0  0  0
  -16.1615   17.0331   31.2589 H   0  0  0  0  0  0  0  0  0  0  0  0
  -19.5708   14.4912   30.5688 H   0  0  0  0  0  0  0  0  0  0  0  0
  -14.2381    7.1938   23.9881 H   0  0  0  0  0  0  0  0  0  0  0  0
  -15.6401    7.6603   22.9666 H   0  0  0  0  0  0  0  0  0  0  0  0
  -14.1538    8.6690   22.9666 H   0  0  0  0  0  0  0  0  0  0  0  0
  1  2  1  0
  1 15  1  0
  1 16  2  0
  2  3  1  6
  2  4  1  0
  2 17  1  0
  5 17  1  0
  5 18  2  0
  6 18  1  0
  6 21  1  0
  6 28  2  0
  7  8  1  0
  7 23  1  0
  8 24  1  0
  9 24  1  0
  9 25  2  0
 10 11  2  0
 10 22  1  0
 10 27  1  0
 11 28  1  0
 12 13  1  0
 12 14  1  0
 12 34  1  0
 17 20  1  0
 18 19  1  0
 19 20  2  0
 21 22  2  0
 22 23  1  0
 24 27  1  0
 25 26  1  0
 25 29  1  0
 26 27  2  0
 29 30  2  0
 29 34  1  0
 30 31  1  0
 31 32  1  0
 31 33  2  0
 33 34  1  0
  3 35  1  0
  3 36  1  0
  3 37  1  0
  4 38  1  0
  4 39  1  0
  4 40  1  0
  5 41  1  0
  7 42  1  0
  7 43  1  0
  8 44  1  0
  8 45  1  0
  9 46  1  0
 11 47  1  0
 12 48  1  1
 13 49  1  0
 13 50  1  0
 13 51  1  0
 14 52  1  0
 14 53  1  0
 14 54  1  0
 15 55  1  0
 15 56  1  0
 19 57  1  0
 21 58  1  0
 28 59  1  0
 32 60  1  0
 32 61  1  0
 32 62  1  0
M  END
>  <filename_input>  (10) 
8EXL_799_docked.sdf

>  <pdb_id>  (10) 
8EXL_799

>  <pose_rank>  (10) 
9

>  <num_atoms_heavy>  (10) 
34

>  <num_torsions>  (10) 
5

>  <pose>  (10) 
[-17.934025360180176, 15.844785807313777, 30.99880455377964, -1.846617628765395, 5.409703852074406, 2.243443260738506, -12.812203753383123, -3.095144253734119, 0.7202277516365838, 2.813686898213793, -2.6497308185950077]

>  <energy>  (10) 
-1412.1689105520556

>  <inter_energy>  (10) 
-1484.5006071907935

>  <intra_energy>  (10) 
86.23859667655849

>  <rmsd>  (10) 
1.38896

>  <sdf_rank>  (10) 
0

$$$$

     RDKit          3D

 62 66  0  0  0  0  0  0  0  0999 V2000
  -21.4833   19.3630   34.9519 C   0  0  0  0  0  0  0  0  0  0  0  0
  -21.0504   17.9767   35.3233 C   0  0  2  0  0  0  0  0  0  0  0  0
  -21.9917   17.3984   36.3816 C   0  0  0  0  0  0  0  0  0  0  0  0
  -19.6140   18.0308   35.8530 C   0  0  0  0  0  0  0  0  0  0  0  0
  -20.0681   16.4904   33.5399 C   0  0  0  0  0  0  0  0  0  0  0  0
  -19.8100   14.9514   31.5185 C   0  0  0  0  0  0  0  0  0  0  0  0
  -16.1041   15.0853   28.6967 C   0  0  0  0  0  0  0  0  0  0  0  0
  -15.3923   13.7720   28.4021 C   0  0  0  0  0  0  0  0  0  0  0  0
  -16.1936   11.6752   27.2892 C   0  0  0  0  0  0  0  0  0  0  0  0
  -18.3215   13.4300   29.7171 C   0  0  0  0  0  0  0  0  0  0  0  0
  -19.6292   13.0781   30.0400 C   0  0  0  0  0  0  0  0  0  0  0  0
  -15.1844    9.3406   25.6977 C   0  0  1  0  0  0  0  0  0  0  0  0
  -14.4946    8.2200   24.9212 C   0  0  0  0  0  0  0  0  0  0  0  0
  -15.1499   10.6766   24.9551 C   0  0  0  0  0  0  0  0  0  0  0  0
  -20.6227   20.4033   35.0655 N   0  0  0  0  0  0  0  0  0  0  0  0
  -22.6061   19.5365   34.5355 O   0  0  0  0  0  0  0  0  0  0  0  0
  -21.1131   17.1122   34.1376 N   0  0  0  0  0  0  0  0  0  0  0  0
  -20.5767   15.7960   32.4755 C   0  0  0  0  0  0  0  0  0  0  0  0
  -21.9755   15.9889   32.4589 C   0  0  0  0  0  0  0  0  0  0  0  0
  -22.2854   16.7776   33.4519 N   0  0  0  0  0  0  0  0  0  0  0  0
  -18.5180   15.3278   31.2074 C   0  0  0  0  0  0  0  0  0  0  0  0
  -17.7664   14.5917   30.3187 C   0  0  0  0  0  0  0  0  0  0  0  0
  -16.5229   15.0143   30.0613 O   0  0  0  0  0  0  0  0  0  0  0  0
  -16.3642   12.7164   28.1537 N   0  0  0  0  0  0  0  0  0  0  0  0
  -17.3107   10.9018   27.3404 C   0  0  0  0  0  0  0  0  0  0  0  0
  -18.1567   11.4721   28.2303 N   0  0  0  0  0  0  0  0  0  0  0  0
  -17.6235   12.5585   28.7362 C   0  0  0  0  0  0  0  0  0  0  0  0
  -20.3732   13.8190   30.9355 C   0  0  0  0  0  0  0  0  0  0  0  0
  -17.5191    9.6486   26.5869 C   0  0  0  0  0  0  0  0  0  0  0  0
  -18.6589    9.0005   26.4482 N   0  0  0  0  0  0  0  0  0  0  0  0
  -18.4830    7.9361   25.6756 C   0  0  0  0  0  0  0  0  0  0  0  0
  -19.5457    6.9351   25.2808 C   0  0  0  0  0  0  0  0  0  0  0  0
  -17.2357    7.8944   25.3006 N   0  0  0  0  0  0  0  0  0  0  0  0
  -16.5953    8.9955   25.8683 N   0  0  0  0  0  0  0  0  0  0  0  0
  -21.6060   17.6353   37.3841 H   0  0  0  0  0  0  0  0  0  0  0  0
  -22.9931   17.8373   36.2607 H   0  0  0  0  0  0  0  0  0  0  0  0
  -22.0528   16.3068   36.2607 H   0  0  0  0  0  0  0  0  0  0  0  0
  -19.6286   18.0303   36.9529 H   0  0  0  0  0  0  0  0  0  0  0  0
  -19.0572   17.1530   35.4932 H   0  0  0  0  0  0  0  0  0  0  0  0
  -19.1248   18.9480   35.4932 H   0  0  0  0  0  0  0  0  0  0  0  0
  -19.0137   16.5350   33.8503 H   0  0  0  0  0  0  0  0  0  0  0  0
  -15.4171   15.9321   28.5522 H   0  0  0  0  0  0  0  0  0  0  0  0
  -16.9596   15.2377   28.0222 H   0  0  0  0  0  0  0  0  0  0  0  0
  -14.7554   13.8955   27.5138 H   0  0  0  0  0  0  0  0  0  0  0  0
  -14.7769   13.4953   29.2708 H   0  0  0  0  0  0  0  0  0  0  0  0
  -15.3087   11.4934   26.6615 H   0  0  0  0  0  0  0  0  0  0  0  0
  -20.0791   12.1905   29.5713 H   0  0  0  0  0  0  0  0  0  0  0  0
  -14.6499    9.4446   26.6535 H   0  0  0  0  0  0  0  0  0  0  0  0
  -14.0527    7.5023   25.6280 H   0  0  0  0  0  0  0  0  0  0  0  0
  -15.2320    7.7046   24.2883 H   0  0  0  0  0  0  0  0  0  0  0  0
  -13.7023    8.6463   24.2883 H   0  0  0  0  0  0  0  0  0  0  0  0
  -15.1286   11.5006   25.6835 H   0  0  0  0  0  0  0  0  0  0  0  0
  -14.2503   10.7220   24.3237 H   0  0  0  0  0  0  0  0  0  0  0  0
  -16.0460   10.7684   24.3237 H   0  0  0  0  0  0  0  0  0  0  0  0
  -20.9264   21.3534   34.8087 H   0  0  0  0  0  0  0  0  0  0  0  0
  -19.6647   20.2440   35.4088 H   0  0  0  0  0  0  0  0  0  0  0  0
  -22.6801   15.5514   31.7364 H   0  0  0  0  0  0  0  0  0  0  0  0
  -18.0850   16.2248   31.6743 H   0  0  0  0  0  0  0  0  0  0  0  0
  -21.4011   13.5181   31.1863 H   0  0  0  0  0  0  0  0  0  0  0  0
  -20.0005    6.5068   26.1862 H   0  0  0  0  0  0  0  0  0  0  0  0
  -20.3207    7.4390   24.6845 H   0  0  0  0  0  0  0  0  0  0  0  0
  -19.0891    6.1314   24.6845 H   0  0  0  0  0  0  0  0  0  0  0  0
  1  2  1  0
  1 15  1  0
  1 16  2  0
  2  3  1  1
  2  4  1  0
  2 17  1  0
  5 17  1  0
  5 18  2  0
  6 18  1  0
  6 21  1  0
  6 28  2  0
  7  8  1  0
  7 23  1  0
  8 24  1  0
  9 24  1  0
  9 25  2  0
 10 11  2  0
 10 22  1  0
 10 27  1  0
 11 28  1  0
 12 13  1  0
 12 14  1  0
 12 34  1  0
 17 20  1  0
 18 19  1  0
 19 20  2  0
 21 22  2  0
 22 23  1  0
 24 27  1  0
 25 26  1  0
 25 29  1  0
 26 27  2  0
 29 30  2  0
 29 34  1  0
 30 31  1  0
 31 32  1  0
 31 33  2  0
 33 34  1  0
  3 35  1  0
  3 36  1  0
  3 37  1  0
  4 38  1  0
  4 39  1  0
  4 40  1  0
  5 41  1  0
  7 42  1  0
  7 43  1  0
  8 44  1  0
  8 45  1  0
  9 46  1  0
 11 47  1  0
 12 48  1  1
 13 49  1  0
 13 50  1  0
 13 51  1  0
 14 52  1  0
 14 53  1  0
 14 54  1  0
 15 55  1  0
 15 56  1  0
 19 57  1  0
 21 58  1  0
 28 59  1  0
 32 60  1  0
 32 61  1  0
 32 62  1  0
M  END
>  <filename_input>  (11) 
8EXL_799_docked.sdf

>  <pdb_id>  (11) 
8EXL_799

>  <pose_rank>  (11) 
10

>  <num_atoms_heavy>  (11) 
34

>  <num_torsions>  (11) 
5

>  <pose>  (11) 
[-19.81001698042207, 14.951361655207538, 31.518486881253867, -2.9948177648559344, 5.418927146504775, 0.39209801391843735, 3.391867424773892, 0.8723792605667328, 2.7763167432930316, 2.853237514650286, -1.3580287027917266]

>  <energy>  (11) 
-631.5401495561408

>  <inter_energy>  (11) 
-701.2456061589422

>  <intra_energy>  (11) 
70.52072376512773

>  <rmsd>  (11) 
2.78189

>  <sdf_rank>  (11) 
0

$$$$

     RDKit          3D

 62 66  0  0  0  0  0  0  0  0999 V2000
  -18.6341   18.2821   36.3441 C   0  0  0  0  0  0  0  0  0  0  0  0
  -19.8443   18.7364   35.5851 C   0  0  2  0  0  0  0  0  0  0  0  0
  -19.7408   20.2315   35.2778 C   0  0  0  0  0  0  0  0  0  0  0  0
  -21.0934   18.4448   36.4225 C   0  0  0  0  0  0  0  0  0  0  0  0
  -18.9361   17.2683   33.7482 C   0  0  0  0  0  0  0  0  0  0  0  0
  -18.7178   15.9050   31.5999 C   0  0  0  0  0  0  0  0  0  0  0  0
  -15.1674   15.9342   28.5820 C   0  0  0  0  0  0  0  0  0  0  0  0
  -14.4740   14.6097   28.2937 C   0  0  0  0  0  0  0  0  0  0  0  0
  -15.3362   12.4797   27.2952 C   0  0  0  0  0  0  0  0  0  0  0  0
  -17.3294   14.3204   29.7733 C   0  0  0  0  0  0  0  0  0  0  0  0
  -18.6185   13.9834   30.1769 C   0  0  0  0  0  0  0  0  0  0  0  0
  -14.3566    9.9622   25.9437 C   0  0  1  0  0  0  0  0  0  0  0  0
  -13.8885    9.4439   24.5848 C   0  0  0  0  0  0  0  0  0  0  0  0
  -14.1753   11.4734   26.0896 C   0  0  0  0  0  0  0  0  0  0  0  0
  -17.4025   18.7323   36.0032 N   0  0  0  0  0  0  0  0  0  0  0  0
  -18.7748   17.5204   37.2737 O   0  0  0  0  0  0  0  0  0  0  0  0
  -19.9190   18.0138   34.3086 N   0  0  0  0  0  0  0  0  0  0  0  0
  -19.4313   16.7832   32.5678 C   0  0  0  0  0  0  0  0  0  0  0  0
  -20.7638   17.2323   32.4381 C   0  0  0  0  0  0  0  0  0  0  0  0
  -21.0445   17.9679   33.4794 N   0  0  0  0  0  0  0  0  0  0  0  0
  -17.4437   16.2671   31.2082 C   0  0  0  0  0  0  0  0  0  0  0  0
  -16.7415   15.4996   30.3057 C   0  0  0  0  0  0  0  0  0  0  0  0
  -15.5130   15.9097   29.9685 O   0  0  0  0  0  0  0  0  0  0  0  0
  -15.4591   13.5494   28.1325 N   0  0  0  0  0  0  0  0  0  0  0  0
  -16.4501   11.7118   27.4314 C   0  0  0  0  0  0  0  0  0  0  0  0
  -17.2466   12.3139   28.3456 N   0  0  0  0  0  0  0  0  0  0  0  0
  -16.6858   13.4148   28.7861 C   0  0  0  0  0  0  0  0  0  0  0  0
  -19.3128   14.7558   31.0856 C   0  0  0  0  0  0  0  0  0  0  0  0
  -16.6999   10.4351   26.7320 C   0  0  0  0  0  0  0  0  0  0  0  0
  -17.8675    9.8409   26.5836 N   0  0  0  0  0  0  0  0  0  0  0  0
  -17.7231    8.7315   25.8700 C   0  0  0  0  0  0  0  0  0  0  0  0
  -18.8242    7.7686   25.4856 C   0  0  0  0  0  0  0  0  0  0  0  0
  -16.4680    8.6065   25.5427 N   0  0  0  0  0  0  0  0  0  0  0  0
  -15.7889    9.6998   26.0796 N   0  0  0  0  0  0  0  0  0  0  0  0
  -19.7016   20.7977   36.2200 H   0  0  0  0  0  0  0  0  0  0  0  0
  -18.8272   20.4239   34.6961 H   0  0  0  0  0  0  0  0  0  0  0  0
  -20.6192   20.5480   34.6961 H   0  0  0  0  0  0  0  0  0  0  0  0
  -20.8403   18.5039   37.4914 H   0  0  0  0  0  0  0  0  0  0  0  0
  -21.8727   19.1851   36.1888 H   0  0  0  0  0  0  0  0  0  0  0  0
  -21.4642   17.4359   36.1888 H   0  0  0  0  0  0  0  0  0  0  0  0
  -17.9331   17.0877   34.1621 H   0  0  0  0  0  0  0  0  0  0  0  0
  -14.4880   16.7737   28.3731 H   0  0  0  0  0  0  0  0  0  0  0  0
  -16.0574   16.0669   27.9493 H   0  0  0  0  0  0  0  0  0  0  0  0
  -13.8852   14.7019   27.3691 H   0  0  0  0  0  0  0  0  0  0  0  0
  -13.8135   14.3600   29.1371 H   0  0  0  0  0  0  0  0  0  0  0  0
  -14.4863   12.2746   26.6277 H   0  0  0  0  0  0  0  0  0  0  0  0
  -19.0939   13.0821   29.7625 H   0  0  0  0  0  0  0  0  0  0  0  0
  -13.7526    9.4505   26.7075 H   0  0  0  0  0  0  0  0  0  0  0  0
  -13.1580    8.6349   24.7327 H   0  0  0  0  0  0  0  0  0  0  0  0
  -14.7519    9.0598   24.0216 H   0  0  0  0  0  0  0  0  0  0  0  0
  -13.4187   10.2637   24.0216 H   0  0  0  0  0  0  0  0  0  0  0  0
  -14.1435   11.7375   27.1569 H   0  0  0  0  0  0  0  0  0  0  0  0
  -13.2341   11.7778   25.6084 H   0  0  0  0  0  0  0  0  0  0  0  0
  -15.0176   11.9919   25.6084 H   0  0  0  0  0  0  0  0  0  0  0  0
  -16.5749   18.4163   36.5287 H   0  0  0  0  0  0  0  0  0  0  0  0
  -17.2938   19.3906   35.2185 H   0  0  0  0  0  0  0  0  0  0  0  0
  -21.4455   17.0027   31.6058 H   0  0  0  0  0  0  0  0  0  0  0  0
  -16.9852   17.1776   31.6214 H   0  0  0  0  0  0  0  0  0  0  0  0
  -20.3262   14.4665   31.4006 H   0  0  0  0  0  0  0  0  0  0  0  0
  -19.2895    7.3616   26.3955 H   0  0  0  0  0  0  0  0  0  0  0  0
  -19.5832    8.2979   24.8909 H   0  0  0  0  0  0  0  0  0  0  0  0
  -18.4007    6.9458   24.8909 H   0  0  0  0  0  0  0  0  0  0  0  0
  1  2  1  0
  1 15  1  0
  1 16  2  0
  2  3  1  6
  2  4  1  0
  2 17  1  0
  5 17  1  0
  5 18  2  0
  6 18  1  0
  6 21  1  0
  6 28  2  0
  7  8  1  0
  7 23  1  0
  8 24  1  0
  9 24  1  0
  9 25  2  0
 10 11  2  0
 10 22  1  0
 10 27  1  0
 11 28  1  0
 12 13  1  0
 12 14  1  0
 12 34  1  0
 17 20  1  0
 18 19  1  0
 19 20  2  0
 21 22  2  0
 22 23  1  0
 24 27  1  0
 25 26  1  0
 25 29  1  0
 26 27  2  0
 29 30  2  0
 29 34  1  0
 30 31  1  0
 31 32  1  0
 31 33  2  0
 33 34  1  0
  3 35  1  0
  3 36  1  0
  3 37  1  0
  4 38  1  0
  4 39  1  0
  4 40  1  0
  5 41  1  0
  7 42  1  0
  7 43  1  0
  8 44  1  0
  8 45  1  0
  9 46  1  0
 11 47  1  0
 12 48  1  1
 13 49  1  0
 13 50  1  0
 13 51  1  0
 14 52  1  0
 14 53  1  0
 14 54  1  0
 15 55  1  0
 15 56  1  0
 19 57  1  0
 21 58  1  0
 28 59  1  0
 32 60  1  0
 32 61  1  0
 32 62  1  0
M  END
>  <filename_input>  (12) 
8EXL_799_docked.sdf

>  <pdb_id>  (12) 
8EXL_799

>  <pose_rank>  (12) 
11

>  <num_atoms_heavy>  (12) 
34

>  <num_torsions>  (12) 
5

>  <pose>  (12) 
[-18.71779846508444, 15.905043191569845, 31.599920075036362, -1.6966597133407193, 5.523702041747033, 2.4204862169553976, -2.7883768679329304, 1.5512958193686701, -3.7838493529494426, 0.590317389198168, 2.0487615700116164]

>  <energy>  (12) 
-778.0458321634123

>  <inter_energy>  (12) 
-970.4940268470439

>  <intra_energy>  (12) 
179.22416710110681

>  <rmsd>  (12) 
2.74654

>  <sdf_rank>  (12) 
0

$$$$

     RDKit          3D

 62 66  0  0  0  0  0  0  0  0999 V2000
  -21.9979   17.0165   35.3634 C   0  0  0  0  0  0  0  0  0  0  0  0
  -21.9375   17.5239   33.9541 C   0  0  2  0  0  0  0  0  0  0  0  0
  -22.1518   19.0386   33.9317 C   0  0  0  0  0  0  0  0  0  0  0  0
  -23.0140   16.8161   33.1254 C   0  0  0  0  0  0  0  0  0  0  0  0
  -20.3153   16.3155   32.4499 C   0  0  0  0  0  0  0  0  0  0  0  0
  -18.1783   15.5721   31.2659 C   0  0  0  0  0  0  0  0  0  0  0  0
  -14.2886   15.6914   28.7027 C   0  0  0  0  0  0  0  0  0  0  0  0
  -13.6206   14.3643   28.3698 C   0  0  0  0  0  0  0  0  0  0  0  0
  -14.4421   12.3837   27.0738 C   0  0  0  0  0  0  0  0  0  0  0  0
  -16.6445   14.0912   29.4688 C   0  0  0  0  0  0  0  0  0  0  0  0
  -17.9860   13.7870   29.6835 C   0  0  0  0  0  0  0  0  0  0  0  0
  -13.4154    9.9953   25.5489 C   0  0  1  0  0  0  0  0  0  0  0  0
  -12.7398    8.9378   24.6773 C   0  0  0  0  0  0  0  0  0  0  0  0
  -13.1836   11.4160   25.0336 C   0  0  0  0  0  0  0  0  0  0  0  0
  -21.0116   17.3165   36.2426 N   0  0  0  0  0  0  0  0  0  0  0  0
  -22.9464   16.3487   35.7076 O   0  0  0  0  0  0  0  0  0  0  0  0
  -20.6099   17.2441   33.3916 N   0  0  0  0  0  0  0  0  0  0  0  0
  -18.9674   16.3940   32.2245 C   0  0  0  0  0  0  0  0  0  0  0  0
  -18.4497   17.4248   33.0391 C   0  0  0  0  0  0  0  0  0  0  0  0
  -19.4361   17.9236   33.7336 N   0  0  0  0  0  0  0  0  0  0  0  0
  -16.8521   15.9009   31.0636 C   0  0  0  0  0  0  0  0  0  0  0  0
  -16.0775   15.1838   30.1791 C   0  0  0  0  0  0  0  0  0  0  0  0
  -14.8012   15.5577   30.0300 O   0  0  0  0  0  0  0  0  0  0  0  0
  -14.6218   13.3768   27.9914 N   0  0  0  0  0  0  0  0  0  0  0  0
  -15.5950   11.6664   27.0028 C   0  0  0  0  0  0  0  0  0  0  0  0
  -16.4715   12.2230   27.8716 N   0  0  0  0  0  0  0  0  0  0  0  0
  -15.9234   13.2475   28.4803 C   0  0  0  0  0  0  0  0  0  0  0  0
  -18.7532   14.5080   30.5755 C   0  0  0  0  0  0  0  0  0  0  0  0
  -15.8104   10.4743   26.1576 C   0  0  0  0  0  0  0  0  0  0  0  0
  -16.9739    9.9408   25.8410 N   0  0  0  0  0  0  0  0  0  0  0  0
  -16.7910    8.9021   25.0356 C   0  0  0  0  0  0  0  0  0  0  0  0
  -17.8754    8.0226   24.4543 C   0  0  0  0  0  0  0  0  0  0  0  0
  -15.5139    8.7638   24.8166 N   0  0  0  0  0  0  0  0  0  0  0  0
  -14.8607    9.7736   25.5226 N   0  0  0  0  0  0  0  0  0  0  0  0
  -22.2053   19.4166   34.9634 H   0  0  0  0  0  0  0  0  0  0  0  0
  -21.3128   19.5199   33.4079 H   0  0  0  0  0  0  0  0  0  0  0  0
  -23.0914   19.2682   33.4079 H   0  0  0  0  0  0  0  0  0  0  0  0
  -23.7404   16.3385   33.7993 H   0  0  0  0  0  0  0  0  0  0  0  0
  -23.5307   17.5513   32.4910 H   0  0  0  0  0  0  0  0  0  0  0  0
  -22.5438   16.0504   32.4910 H   0  0  0  0  0  0  0  0  0  0  0  0
  -21.0232   15.6302   31.9606 H   0  0  0  0  0  0  0  0  0  0  0  0
  -13.5546   16.5095   28.6580 H   0  0  0  0  0  0  0  0  0  0  0  0
  -15.0886   15.9285   27.9860 H   0  0  0  0  0  0  0  0  0  0  0  0
  -12.9203   14.5099   27.5341 H   0  0  0  0  0  0  0  0  0  0  0  0
  -13.0787   14.0036   29.2564 H   0  0  0  0  0  0  0  0  0  0  0  0
  -13.5264   12.1962   26.4938 H   0  0  0  0  0  0  0  0  0  0  0  0
  -18.4442   12.9540   29.1302 H   0  0  0  0  0  0  0  0  0  0  0  0
  -12.9857    9.9022   26.5572 H   0  0  0  0  0  0  0  0  0  0  0  0
  -12.2591    8.1855   25.3199 H   0  0  0  0  0  0  0  0  0  0  0  0
  -13.4937    8.4497   24.0423 H   0  0  0  0  0  0  0  0  0  0  0  0
  -11.9800    9.4168   24.0423 H   0  0  0  0  0  0  0  0  0  0  0  0
  -13.0717   12.1017   25.8864 H   0  0  0  0  0  0  0  0  0  0  0  0
  -12.2697   11.4396   24.4218 H   0  0  0  0  0  0  0  0  0  0  0  0
  -14.0426   11.7289   24.4218 H   0  0  0  0  0  0  0  0  0  0  0  0
  -21.0590   16.9647   37.2095 H   0  0  0  0  0  0  0  0  0  0  0  0
  -20.2144   17.8963   35.9441 H   0  0  0  0  0  0  0  0  0  0  0  0
  -17.3998   17.7503   33.0810 H   0  0  0  0  0  0  0  0  0  0  0  0
  -16.4101   16.7441   31.6146 H   0  0  0  0  0  0  0  0  0  0  0  0
  -19.8086   14.2449   30.7397 H   0  0  0  0  0  0  0  0  0  0  0  0
  -18.4478    7.5582   25.2708 H   0  0  0  0  0  0  0  0  0  0  0  0
  -18.5493    8.6324   23.8347 H   0  0  0  0  0  0  0  0  0  0  0  0
  -17.4177    7.2374   23.8347 H   0  0  0  0  0  0  0  0  0  0  0  0
  1  2  1  0
  1 15  1  0
  1 16  2  0
  2  3  1  1
  2  4  1  0
  2 17  1  0
  5 17  1  0
  5 18  2  0
  6 18  1  0
  6 21  1  0
  6 28  2  0
  7  8  1  0
  7 23  1  0
  8 24  1  0
  9 24  1  0
  9 25  2  0
 10 11  2  0
 10 22  1  0
 10 27  1  0
 11 28  1  0
 12 13  1  0
 12 14  1  0
 12 34  1  0
 17 20  1  0
 18 19  1  0
 19 20  2  0
 21 22  2  0
 22 23  1  0
 24 27  1  0
 25 26  1  0
 25 29  1  0
 26 27  2  0
 29 30  2  0
 29 34  1  0
 30 31  1  0
 31 32  1  0
 31 33  2  0
 33 34  1  0
  3 35  1  0
  3 36  1  0
  3 37  1  0
  4 38  1  0
  4 39  1  0
  4 40  1  0
  5 41  1  0
  7 42  1  0
  7 43  1  0
  8 44  1  0
  8 45  1  0
  9 46  1  0
 11 47  1  0
 12 48  1  1
 13 49  1  0
 13 50  1  0
 13 51  1  0
 14 52  1  0
 14 53  1  0
 14 54  1  0
 15 55  1  0
 15 56  1  0
 19 57  1  0
 21 58  1  0
 28 59  1  0
 32 60  1  0
 32 61  1  0
 32 62  1  0
M  END
>  <filename_input>  (13) 
8EXL_799_docked.sdf

>  <pdb_id>  (13) 
8EXL_799

>  <pose_rank>  (13) 
12

>  <num_atoms_heavy>  (13) 
34

>  <num_torsions>  (13) 
5

>  <pose>  (13) 
[-18.178301533034016, 15.572140980822212, 31.265866529838316, -3.4457742642984397, 4.674987020323883, 1.883919884584168, -2.817438468093334, 0.9756207658789879, -6.1976904138994895, 2.6997523887215467, 1.5502140622938292]

>  <energy>  (13) 
-1213.1026973001558

>  <inter_energy>  (13) 
-1292.3409783829552

>  <intra_energy>  (13) 
86.49637685608371

>  <rmsd>  (13) 
2.28568

>  <sdf_rank>  (13) 
0

$$$$

     RDKit          3D

 62 66  0  0  0  0  0  0  0  0999 V2000
  -22.5560   17.9234   33.5569 C   0  0  0  0  0  0  0  0  0  0  0  0
  -21.4232   18.0264   34.5333 C   0  0  2  0  0  0  0  0  0  0  0  0
  -21.5673   16.9586   35.6194 C   0  0  0  0  0  0  0  0  0  0  0  0
  -21.4279   19.4275   35.1526 C   0  0  0  0  0  0  0  0  0  0  0  0
  -19.8898   16.7957   32.9557 C   0  0  0  0  0  0  0  0  0  0  0  0
  -17.8521   16.1017   31.5820 C   0  0  0  0  0  0  0  0  0  0  0  0
  -14.2427   16.2135   28.6368 C   0  0  0  0  0  0  0  0  0  0  0  0
  -13.5323   14.9002   28.3394 C   0  0  0  0  0  0  0  0  0  0  0  0
  -14.3560   12.7809   27.2868 C   0  0  0  0  0  0  0  0  0  0  0  0
  -16.4139   14.5610   29.7563 C   0  0  0  0  0  0  0  0  0  0  0  0
  -17.7078   14.2063   30.1280 C   0  0  0  0  0  0  0  0  0  0  0  0
  -13.2961   10.1597   26.1391 C   0  0  1  0  0  0  0  0  0  0  0  0
  -12.6747    9.4091   24.9622 C   0  0  0  0  0  0  0  0  0  0  0  0
  -13.0635   11.6689   26.0611 C   0  0  0  0  0  0  0  0  0  0  0  0
  -22.4605   18.4978   32.3335 N   0  0  0  0  0  0  0  0  0  0  0  0
  -23.5491   17.3079   33.8715 O   0  0  0  0  0  0  0  0  0  0  0  0
  -20.1532   17.7942   33.8330 N   0  0  0  0  0  0  0  0  0  0  0  0
  -18.5923   16.9567   32.5506 C   0  0  0  0  0  0  0  0  0  0  0  0
  -18.0777   18.1075   33.1870 C   0  0  0  0  0  0  0  0  0  0  0  0
  -19.0148   18.5981   33.9520 N   0  0  0  0  0  0  0  0  0  0  0  0
  -16.5736   16.4811   31.2223 C   0  0  0  0  0  0  0  0  0  0  0  0
  -15.8470   15.7356   30.3208 C   0  0  0  0  0  0  0  0  0  0  0  0
  -14.6156   16.1617   30.0155 O   0  0  0  0  0  0  0  0  0  0  0  0
  -14.5048   13.8347   28.1401 N   0  0  0  0  0  0  0  0  0  0  0  0
  -15.4656   12.0015   27.3873 C   0  0  0  0  0  0  0  0  0  0  0  0
  -16.2854   12.5807   28.2957 N   0  0  0  0  0  0  0  0  0  0  0  0
  -15.7430   13.6783   28.7665 C   0  0  0  0  0  0  0  0  0  0  0  0
  -18.4267   14.9567   31.0359 C   0  0  0  0  0  0  0  0  0  0  0  0
  -15.6904   10.7352   26.6609 C   0  0  0  0  0  0  0  0  0  0  0  0
  -16.8586   10.1918   26.3809 N   0  0  0  0  0  0  0  0  0  0  0  0
  -16.6831    9.0756   25.6850 C   0  0  0  0  0  0  0  0  0  0  0  0
  -17.7747    8.1604   25.1770 C   0  0  0  0  0  0  0  0  0  0  0  0
  -15.4058    8.8957   25.5002 N   0  0  0  0  0  0  0  0  0  0  0  0
  -14.7445    9.9598   26.1128 N   0  0  0  0  0  0  0  0  0  0  0  0
  -21.5034   17.4324   36.6101 H   0  0  0  0  0  0  0  0  0  0  0  0
  -22.5412   16.4581   35.5146 H   0  0  0  0  0  0  0  0  0  0  0  0
  -20.7610   16.2178   35.5146 H   0  0  0  0  0  0  0  0  0  0  0  0
  -21.4276   19.3436   36.2494 H   0  0  0  0  0  0  0  0  0  0  0  0
  -20.5315   19.9755   34.8265 H   0  0  0  0  0  0  0  0  0  0  0  0
  -22.3278   19.9695   34.8265 H   0  0  0  0  0  0  0  0  0  0  0  0
  -20.5851   16.0074   32.6314 H   0  0  0  0  0  0  0  0  0  0  0  0
  -13.5666   17.0622   28.4563 H   0  0  0  0  0  0  0  0  0  0  0  0
  -15.1211   16.3499   27.9888 H   0  0  0  0  0  0  0  0  0  0  0  0
  -12.9261   15.0134   27.4286 H   0  0  0  0  0  0  0  0  0  0  0  0
  -12.8866   14.6411   29.1914 H   0  0  0  0  0  0  0  0  0  0  0  0
  -13.4912   12.5947   26.6330 H   0  0  0  0  0  0  0  0  0  0  0  0
  -18.1670   13.3085   29.6885 H   0  0  0  0  0  0  0  0  0  0  0  0
  -12.8258    9.7685   27.0533 H   0  0  0  0  0  0  0  0  0  0  0  0
  -12.0162    8.6136   25.3413 H   0  0  0  0  0  0  0  0  0  0  0  0
  -13.4721    8.9639   24.3491 H   0  0  0  0  0  0  0  0  0  0  0  0
  -12.0884   10.1093   24.3491 H   0  0  0  0  0  0  0  0  0  0  0  0
  -12.9997   12.0831   27.0782 H   0  0  0  0  0  0  0  0  0  0  0  0
  -12.1241   11.8679   25.5246 H   0  0  0  0  0  0  0  0  0  0  0  0
  -13.8995   12.1415   25.5246 H   0  0  0  0  0  0  0  0  0  0  0  0
  -23.2425   18.4234   31.6672 H   0  0  0  0  0  0  0  0  0  0  0  0
  -21.6060   19.0089   32.0698 H   0  0  0  0  0  0  0  0  0  0  0  0
  -17.0651   18.5183   33.0604 H   0  0  0  0  0  0  0  0  0  0  0  0
  -16.1314   17.3881   31.6604 H   0  0  0  0  0  0  0  0  0  0  0  0
  -19.4437   14.6535   31.3255 H   0  0  0  0  0  0  0  0  0  0  0  0
  -18.3063    7.7147   26.0307 H   0  0  0  0  0  0  0  0  0  0  0  0
  -18.4830    8.7386   24.5655 H   0  0  0  0  0  0  0  0  0  0  0  0
  -17.3289    7.3621   24.5655 H   0  0  0  0  0  0  0  0  0  0  0  0
  1  2  1  0
  1 15  1  0
  1 16  2  0
  2  3  1  1
  2  4  1  0
  2 17  1  0
  5 17  1  0
  5 18  2  0
  6 18  1  0
  6 21  1  0
  6 28  2  0
  7  8  1  0
  7 23  1  0
  8 24  1  0
  9 24  1  0
  9 25  2  0
 10 11  2  0
 10 22  1  0
 10 27  1  0
 11 28  1  0
 12 13  1  0
 12 14  1  0
 12 34  1  0
 17 20  1  0
 18 19  1  0
 19 20  2  0
 21 22  2  0
 22 23  1  0
 24 27  1  0
 25 26  1  0
 25 29  1  0
 26 27  2  0
 29 30  2  0
 29 34  1  0
 30 31  1  0
 31 32  1  0
 31 33  2  0
 33 34  1  0
  3 35  1  0
  3 36  1  0
  3 37  1  0
  4 38  1  0
  4 39  1  0
  4 40  1  0
  5 41  1  0
  7 42  1  0
  7 43  1  0
  8 44  1  0
  8 45  1  0
  9 46  1  0
 11 47  1  0
 12 48  1  1
 13 49  1  0
 13 50  1  0
 13 51  1  0
 14 52  1  0
 14 53  1  0
 14 54  1  0
 15 55  1  0
 15 56  1  0
 19 57  1  0
 21 58  1  0
 28 59  1  0
 32 60  1  0
 32 61  1  0
 32 62  1  0
M  END
>  <filename_input>  (14) 
8EXL_799_docked.sdf

>  <pdb_id>  (14) 
8EXL_799

>  <pose_rank>  (14) 
13

>  <num_atoms_heavy>  (14) 
34

>  <num_torsions>  (14) 
5

>  <pose>  (14) 
[-17.85208101174936, 16.101662674586084, 31.582008281590507, -3.3166636116712653, 5.282649974648408, -0.19693938703501573, -2.680983622891595, 1.3823038025972163, 0.13320397057644418, 0.004747584359762418, -0.058422142228351154]

>  <energy>  (14) 
-1114.5006419060742

>  <inter_energy>  (14) 
-1249.9964400504284

>  <intra_energy>  (14) 
149.0674308523274

>  <rmsd>  (14) 
1.96813

>  <sdf_rank>  (14) 
0

$$$$

     RDKit          3D

 62 66  0  0  0  0  0  0  0  0999 V2000
  -19.9737   17.7893   35.8868 C   0  0  0  0  0  0  0  0  0  0  0  0
  -19.3006   18.6308   34.8448 C   0  0  2  0  0  0  0  0  0  0  0  0
  -17.8558   18.9203   35.2563 C   0  0  0  0  0  0  0  0  0  0  0  0
  -20.0845   19.9364   34.6791 C   0  0  0  0  0  0  0  0  0  0  0  0
  -18.2196   17.2198   33.0572 C   0  0  0  0  0  0  0  0  0  0  0  0
  -17.8203   15.8660   30.9291 C   0  0  0  0  0  0  0  0  0  0  0  0
  -14.1570   16.1220   28.0605 C   0  0  0  0  0  0  0  0  0  0  0  0
  -13.3647   14.8461   27.8105 C   0  0  0  0  0  0  0  0  0  0  0  0
  -14.0392   12.6586   26.7921 C   0  0  0  0  0  0  0  0  0  0  0  0
  -16.2534   14.3710   29.1727 C   0  0  0  0  0  0  0  0  0  0  0  0
  -17.5326   13.9495   29.5249 C   0  0  0  0  0  0  0  0  0  0  0  0
  -12.8114    9.8548   26.1465 C   0  0  1  0  0  0  0  0  0  0  0  0
  -12.3069    8.5935   26.8460 C   0  0  0  0  0  0  0  0  0  0  0  0
  -12.1212   10.0971   24.8039 C   0  0  0  0  0  0  0  0  0  0  0  0
  -21.2922   17.4949   35.7832 N   0  0  0  0  0  0  0  0  0  0  0  0
  -19.3198   17.3651   36.8123 O   0  0  0  0  0  0  0  0  0  0  0  0
  -19.2729   17.8999   33.5711 N   0  0  0  0  0  0  0  0  0  0  0  0
  -18.6310   16.6982   31.8604 C   0  0  0  0  0  0  0  0  0  0  0  0
  -19.9839   17.0565   31.6720 C   0  0  0  0  0  0  0  0  0  0  0  0
  -20.3567   17.7756   32.6957 N   0  0  0  0  0  0  0  0  0  0  0  0
  -16.5582   16.3116   30.5879 C   0  0  0  0  0  0  0  0  0  0  0  0
  -15.7689   15.5895   29.7206 C   0  0  0  0  0  0  0  0  0  0  0  0
  -14.5577   16.0801   29.4317 O   0  0  0  0  0  0  0  0  0  0  0  0
  -14.2686   13.7211   27.6162 N   0  0  0  0  0  0  0  0  0  0  0  0
  -15.1035   11.8179   26.8876 C   0  0  0  0  0  0  0  0  0  0  0  0
  -15.9763   12.3686   27.7638 N   0  0  0  0  0  0  0  0  0  0  0  0
  -15.5097   13.5067   28.2194 C   0  0  0  0  0  0  0  0  0  0  0  0
  -18.3146   14.6771   30.3987 C   0  0  0  0  0  0  0  0  0  0  0  0
  -15.2375   10.5242   26.1875 C   0  0  0  0  0  0  0  0  0  0  0  0
  -16.3534   10.0015   25.7184 N   0  0  0  0  0  0  0  0  0  0  0  0
  -16.0943    8.8476   25.1163 C   0  0  0  0  0  0  0  0  0  0  0  0
  -17.1068    7.9402   24.4538 C   0  0  0  0  0  0  0  0  0  0  0  0
  -14.8125    8.6221   25.1809 N   0  0  0  0  0  0  0  0  0  0  0  0
  -14.2364    9.6957   25.8594 N   0  0  0  0  0  0  0  0  0  0  0  0
  -17.7831   18.9348   36.3538 H   0  0  0  0  0  0  0  0  0  0  0  0
  -17.1963   18.1364   34.8555 H   0  0  0  0  0  0  0  0  0  0  0  0
  -17.5492   19.8977   34.8555 H   0  0  0  0  0  0  0  0  0  0  0  0
  -20.3299   20.3451   35.6704 H   0  0  0  0  0  0  0  0  0  0  0  0
  -19.4732   20.6632   34.1239 H   0  0  0  0  0  0  0  0  0  0  0  0
  -21.0133   19.7385   34.1239 H   0  0  0  0  0  0  0  0  0  0  0  0
  -17.2252   17.1083   33.5140 H   0  0  0  0  0  0  0  0  0  0  0  0
  -13.5274   17.0046   27.8740 H   0  0  0  0  0  0  0  0  0  0  0  0
  -15.0267   16.1916   27.3906 H   0  0  0  0  0  0  0  0  0  0  0  0
  -12.7453   14.9739   26.9104 H   0  0  0  0  0  0  0  0  0  0  0  0
  -12.7247   14.6451   28.6822 H   0  0  0  0  0  0  0  0  0  0  0  0
  -13.1502   12.5084   26.1619 H   0  0  0  0  0  0  0  0  0  0  0  0
  -17.9286   13.0164   29.0976 H   0  0  0  0  0  0  0  0  0  0  0  0
  -12.6011   10.7000   26.8184 H   0  0  0  0  0  0  0  0  0  0  0  0
  -12.3621    8.7317   27.9359 H   0  0  0  0  0  0  0  0  0  0  0  0
  -12.9316    7.7369   26.5529 H   0  0  0  0  0  0  0  0  0  0  0  0
  -11.2638    8.4039   26.5529 H   0  0  0  0  0  0  0  0  0  0  0  0
  -11.0964   10.4568   24.9780 H   0  0  0  0  0  0  0  0  0  0  0  0
  -12.0879    9.1569   24.2338 H   0  0  0  0  0  0  0  0  0  0  0  0
  -12.6829   10.8518   24.2338 H   0  0  0  0  0  0  0  0  0  0  0  0
  -21.7487   16.9162   36.5026 H   0  0  0  0  0  0  0  0  0  0  0  0
  -21.8379   17.8497   34.9849 H   0  0  0  0  0  0  0  0  0  0  0  0
  -20.6130   16.7786   30.8135 H   0  0  0  0  0  0  0  0  0  0  0  0
  -16.1797   17.2527   31.0132 H   0  0  0  0  0  0  0  0  0  0  0  0
  -19.3186   14.3214   30.6735 H   0  0  0  0  0  0  0  0  0  0  0  0
  -17.6905    7.4171   25.2255 H   0  0  0  0  0  0  0  0  0  0  0  0
  -17.7825    8.5407   23.8271 H   0  0  0  0  0  0  0  0  0  0  0  0
  -16.5836    7.2030   23.8271 H   0  0  0  0  0  0  0  0  0  0  0  0
  1  2  1  0
  1 15  1  0
  1 16  2  0
  2  3  1  1
  2  4  1  0
  2 17  1  0
  5 17  1  0
  5 18  2  0
  6 18  1  0
  6 21  1  0
  6 28  2  0
  7  8  1  0
  7 23  1  0
  8 24  1  0
  9 24  1  0
  9 25  2  0
 10 11  2  0
 10 22  1  0
 10 27  1  0
 11 28  1  0
 12 13  1  0
 12 14  1  0
 12 34  1  0
 17 20  1  0
 18 19  1  0
 19 20  2  0
 21 22  2  0
 22 23  1  0
 24 27  1  0
 25 26  1  0
 25 29  1  0
 26 27  2  0
 29 30  2  0
 29 34  1  0
 30 31  1  0
 31 32  1  0
 31 33  2  0
 33 34  1  0
  3 35  1  0
  3 36  1  0
  3 37  1  0
  4 38  1  0
  4 39  1  0
  4 40  1  0
  5 41  1  0
  7 42  1  0
  7 43  1  0
  8 44  1  0
  8 45  1  0
  9 46  1  0
 11 47  1  0
 12 48  1  1
 13 49  1  0
 13 50  1  0
 13 51  1  0
 14 52  1  0
 14 53  1  0
 14 54  1  0
 15 55  1  0
 15 56  1  0
 19 57  1  0
 21 58  1  0
 28 59  1  0
 32 60  1  0
 32 61  1  0
 32 62  1  0
M  END
>  <filename_input>  (15) 
8EXL_799_docked.sdf

>  <pdb_id>  (15) 
8EXL_799

>  <pose_rank>  (15) 
14

>  <num_atoms_heavy>  (15) 
34

>  <num_torsions>  (15) 
5

>  <pose>  (15) 
[-17.82030467757072, 15.86604346929832, 30.929050900499504, -8.763714585621751e-05, 4.273839760772074, -4.491065291032877, -2.4911402487719707, 0.052081180051152476, 2.4985032675180467, -0.9312611579222598, -0.46415960989607036]

>  <energy>  (15) 
-1283.150100649895

>  <inter_energy>  (15) 
-1291.915150318932

>  <intra_energy>  (15) 
17.49771437836521

>  <rmsd>  (15) 
2.57286

>  <sdf_rank>  (15) 
0

$$$$

     RDKit          3D

 62 66  0  0  0  0  0  0  0  0999 V2000
  -18.4153   18.4459   35.8344 C   0  0  0  0  0  0  0  0  0  0  0  0
  -19.7800   18.2043   35.2630 C   0  0  2  0  0  0  0  0  0  0  0  0
  -20.5591   19.5189   35.1899 C   0  0  0  0  0  0  0  0  0  0  0  0
  -20.5154   17.1917   36.1464 C   0  0  0  0  0  0  0  0  0  0  0  0
  -18.6542   16.8839   33.4344 C   0  0  0  0  0  0  0  0  0  0  0  0
  -18.1187   15.8027   31.1838 C   0  0  0  0  0  0  0  0  0  0  0  0
  -14.2276   15.9384   28.6234 C   0  0  0  0  0  0  0  0  0  0  0  0
  -13.5283   14.6182   28.3301 C   0  0  0  0  0  0  0  0  0  0  0  0
  -14.3007   12.5820   27.0912 C   0  0  0  0  0  0  0  0  0  0  0  0
  -16.5471   14.3065   29.4326 C   0  0  0  0  0  0  0  0  0  0  0  0
  -17.8816   13.9774   29.6543 C   0  0  0  0  0  0  0  0  0  0  0  0
  -13.2136    9.9103   26.0362 C   0  0  1  0  0  0  0  0  0  0  0  0
  -12.4700    9.6751   24.7222 C   0  0  0  0  0  0  0  0  0  0  0  0
  -12.9726   11.3091   26.6046 C   0  0  0  0  0  0  0  0  0  0  0  0
  -17.3847   17.6253   35.5177 N   0  0  0  0  0  0  0  0  0  0  0  0
  -18.2447   19.3919   36.5693 O   0  0  0  0  0  0  0  0  0  0  0  0
  -19.6508   17.6758   33.8988 N   0  0  0  0  0  0  0  0  0  0  0  0
  -18.9287   16.6334   32.1170 C   0  0  0  0  0  0  0  0  0  0  0  0
  -20.1455   17.2745   31.7969 C   0  0  0  0  0  0  0  0  0  0  0  0
  -20.5668   17.8960   32.8648 N   0  0  0  0  0  0  0  0  0  0  0  0
  -16.8001   16.1564   30.9738 C   0  0  0  0  0  0  0  0  0  0  0  0
  -16.0073   15.4322   30.1115 C   0  0  0  0  0  0  0  0  0  0  0  0
  -14.7397   15.8314   29.9533 O   0  0  0  0  0  0  0  0  0  0  0  0
  -14.5053   13.5969   27.9793 N   0  0  0  0  0  0  0  0  0  0  0  0
  -15.4365   11.8362   27.0396 C   0  0  0  0  0  0  0  0  0  0  0  0
  -16.3274   12.3972   27.8907 N   0  0  0  0  0  0  0  0  0  0  0  0
  -15.8046   13.4515   28.4700 C   0  0  0  0  0  0  0  0  0  0  0  0
  -18.6672   14.7059   30.5239 C   0  0  0  0  0  0  0  0  0  0  0  0
  -15.6223   10.6154   26.2291 C   0  0  0  0  0  0  0  0  0  0  0  0
  -16.7648   10.1580   25.7561 N   0  0  0  0  0  0  0  0  0  0  0  0
  -16.5515    9.0604   25.0414 C   0  0  0  0  0  0  0  0  0  0  0  0
  -17.6056    8.2360   24.3367 C   0  0  0  0  0  0  0  0  0  0  0  0
  -15.2732    8.8074   25.0369 N   0  0  0  0  0  0  0  0  0  0  0  0
  -14.6510    9.8034   25.7891 N   0  0  0  0  0  0  0  0  0  0  0  0
  -20.7710   19.8766   36.2083 H   0  0  0  0  0  0  0  0  0  0  0  0
  -19.9605   20.2706   34.6545 H   0  0  0  0  0  0  0  0  0  0  0  0
  -21.5058   19.3548   34.6545 H   0  0  0  0  0  0  0  0  0  0  0  0
  -20.3400   17.4332   37.2051 H   0  0  0  0  0  0  0  0  0  0  0  0
  -21.5939   17.2352   35.9342 H   0  0  0  0  0  0  0  0  0  0  0  0
  -20.1405   16.1796   35.9342 H   0  0  0  0  0  0  0  0  0  0  0  0
  -17.7905   16.5136   34.0062 H   0  0  0  0  0  0  0  0  0  0  0  0
  -13.5129   16.7718   28.5559 H   0  0  0  0  0  0  0  0  0  0  0  0
  -15.0316   16.1358   27.8990 H   0  0  0  0  0  0  0  0  0  0  0  0
  -12.8298   14.7558   27.4915 H   0  0  0  0  0  0  0  0  0  0  0  0
  -12.9798   14.2961   29.2276 H   0  0  0  0  0  0  0  0  0  0  0  0
  -13.3797   12.3993   26.5181 H   0  0  0  0  0  0  0  0  0  0  0  0
  -18.3191   13.1182   29.1248 H   0  0  0  0  0  0  0  0  0  0  0  0
  -12.8447    9.1610   26.7520 H   0  0  0  0  0  0  0  0  0  0  0  0
  -11.4413    9.3497   24.9363 H   0  0  0  0  0  0  0  0  0  0  0  0
  -12.9876    8.8968   24.1423 H   0  0  0  0  0  0  0  0  0  0  0  0
  -12.4458   10.6095   24.1423 H   0  0  0  0  0  0  0  0  0  0  0  0
  -12.9802   11.2646   27.7036 H   0  0  0  0  0  0  0  0  0  0  0  0
  -11.9969   11.6820   26.2595 H   0  0  0  0  0  0  0  0  0  0  0  0
  -13.7671   11.9870   26.2595 H   0  0  0  0  0  0  0  0  0  0  0  0
  -16.4495   17.7968   35.9137 H   0  0  0  0  0  0  0  0  0  0  0  0
  -17.5365   16.8300   34.8811 H   0  0  0  0  0  0  0  0  0  0  0  0
  -20.6498   17.2539   30.8195 H   0  0  0  0  0  0  0  0  0  0  0  0
  -16.3790   17.0254   31.5006 H   0  0  0  0  0  0  0  0  0  0  0  0
  -19.7165   14.4230   30.6943 H   0  0  0  0  0  0  0  0  0  0  0  0
  -18.2418    7.7385   25.0836 H   0  0  0  0  0  0  0  0  0  0  0  0
  -18.2242    8.8925   23.7071 H   0  0  0  0  0  0  0  0  0  0  0  0
  -17.1176    7.4775   23.7071 H   0  0  0  0  0  0  0  0  0  0  0  0
  1  2  1  0
  1 15  1  0
  1 16  2  0
  2  3  1  6
  2  4  1  0
  2 17  1  0
  5 17  1  0
  5 18  2  0
  6 18  1  0
  6 21  1  0
  6 28  2  0
  7  8  1  0
  7 23  1  0
  8 24  1  0
  9 24  1  0
  9 25  2  0
 10 11  2  0
 10 22  1  0
 10 27  1  0
 11 28  1  0
 12 13  1  0
 12 14  1  0
 12 34  1  0
 17 20  1  0
 18 19  1  0
 19 20  2  0
 21 22  2  0
 22 23  1  0
 24 27  1  0
 25 26  1  0
 25 29  1  0
 26 27  2  0
 29 30  2  0
 29 34  1  0
 30 31  1  0
 31 32  1  0
 31 33  2  0
 33 34  1  0
  3 35  1  0
  3 36  1  0
  3 37  1  0
  4 38  1  0
  4 39  1  0
  4 40  1  0
  5 41  1  0
  7 42  1  0
  7 43  1  0
  8 44  1  0
  8 45  1  0
  9 46  1  0
 11 47  1  0
 12 48  1  1
 13 49  1  0
 13 50  1  0
 13 51  1  0
 14 52  1  0
 14 53  1  0
 14 54  1  0
 15 55  1  0
 15 56  1  0
 19 57  1  0
 21 58  1  0
 28 59  1  0
 32 60  1  0
 32 61  1  0
 32 62  1  0
M  END
>  <filename_input>  (16) 
8EXL_799_docked.sdf

>  <pdb_id>  (16) 
8EXL_799

>  <pose_rank>  (16) 
15

>  <num_atoms_heavy>  (16) 
34

>  <num_torsions>  (16) 
5

>  <pose>  (16) 
[-18.118697018734682, 15.802742366994922, 31.18375179761036, -2.8212564403143663, 5.315765126389388, 1.1399818749138528, -2.6248732010040454, 1.7633231086528787, 2.3412457638267155, 1.3808088716969316, 0.09314162107113315]

>  <energy>  (16) 
-1158.3655356016855

>  <inter_energy>  (16) 
-1381.6943535612097

>  <intra_energy>  (16) 
221.57273485727382

>  <rmsd>  (16) 
2.67613

>  <sdf_rank>  (16) 
0

$$$$

     RDKit          3D

 62 66  0  0  0  0  0  0  0  0999 V2000
  -21.3220   19.1580   35.0267 C   0  0  0  0  0  0  0  0  0  0  0  0
  -21.4861   18.0703   34.0083 C   0  0  2  0  0  0  0  0  0  0  0  0
  -22.4576   18.5174   32.9143 C   0  0  0  0  0  0  0  0  0  0  0  0
  -22.0062   16.8105   34.7074 C   0  0  0  0  0  0  0  0  0  0  0  0
  -19.9237   16.8106   32.4830 C   0  0  0  0  0  0  0  0  0  0  0  0
  -17.8431   16.0520   31.2114 C   0  0  0  0  0  0  0  0  0  0  0  0
  -14.1181   16.1029   28.4121 C   0  0  0  0  0  0  0  0  0  0  0  0
  -13.4340   14.7741   28.1219 C   0  0  0  0  0  0  0  0  0  0  0  0
  -14.2749   12.6954   27.0042 C   0  0  0  0  0  0  0  0  0  0  0  0
  -16.3779   14.4975   29.4191 C   0  0  0  0  0  0  0  0  0  0  0  0
  -17.6951   14.1749   29.7341 C   0  0  0  0  0  0  0  0  0  0  0  0
  -13.2531   10.1465   25.7198 C   0  0  1  0  0  0  0  0  0  0  0  0
  -12.6949    9.7684   24.3487 C   0  0  0  0  0  0  0  0  0  0  0  0
  -13.0242   11.6193   26.0608 C   0  0  0  0  0  0  0  0  0  0  0  0
  -21.0102   18.8540   36.3097 N   0  0  0  0  0  0  0  0  0  0  0  0
  -21.4572   20.3103   34.6832 O   0  0  0  0  0  0  0  0  0  0  0  0
  -20.1887   17.7923   33.3785 N   0  0  0  0  0  0  0  0  0  0  0  0
  -18.5966   16.9136   32.1637 C   0  0  0  0  0  0  0  0  0  0  0  0
  -18.0631   18.0128   32.8719 C   0  0  0  0  0  0  0  0  0  0  0  0
  -19.0192   18.5283   33.5958 N   0  0  0  0  0  0  0  0  0  0  0  0
  -16.5412   16.3995   30.9082 C   0  0  0  0  0  0  0  0  0  0  0  0
  -15.8008   15.6467   30.0241 C   0  0  0  0  0  0  0  0  0  0  0  0
  -14.5467   16.0415   29.7741 O   0  0  0  0  0  0  0  0  0  0  0  0
  -14.4276   13.7403   27.8676 N   0  0  0  0  0  0  0  0  0  0  0  0
  -15.4093   11.9470   27.0487 C   0  0  0  0  0  0  0  0  0  0  0  0
  -16.2477   12.5362   27.9334 N   0  0  0  0  0  0  0  0  0  0  0  0
  -15.6936   13.6106   28.4425 C   0  0  0  0  0  0  0  0  0  0  0  0
  -18.4278   14.9323   30.6250 C   0  0  0  0  0  0  0  0  0  0  0  0
  -15.6409   10.6987   26.2939 C   0  0  0  0  0  0  0  0  0  0  0  0
  -16.8114   10.1577   26.0187 N   0  0  0  0  0  0  0  0  0  0  0  0
  -16.6429    9.0603   25.2919 C   0  0  0  0  0  0  0  0  0  0  0  0
  -17.7391    8.1537   24.7782 C   0  0  0  0  0  0  0  0  0  0  0  0
  -15.3680    8.8904   25.0825 N   0  0  0  0  0  0  0  0  0  0  0  0
  -14.7011    9.9414   25.7114 N   0  0  0  0  0  0  0  0  0  0  0  0
  -23.3641   18.9346   33.3771 H   0  0  0  0  0  0  0  0  0  0  0  0
  -21.9781   19.2855   32.2896 H   0  0  0  0  0  0  0  0  0  0  0  0
  -22.7291   17.6537   32.2896 H   0  0  0  0  0  0  0  0  0  0  0  0
  -21.9501   16.9464   35.7975 H   0  0  0  0  0  0  0  0  0  0  0  0
  -23.0512   16.6329   34.4133 H   0  0  0  0  0  0  0  0  0  0  0  0
  -21.3909   15.9474   34.4133 H   0  0  0  0  0  0  0  0  0  0  0  0
  -20.6377   16.0727   32.0884 H   0  0  0  0  0  0  0  0  0  0  0  0
  -13.4116   16.9343   28.2718 H   0  0  0  0  0  0  0  0  0  0  0  0
  -14.9659   16.2742   27.7324 H   0  0  0  0  0  0  0  0  0  0  0  0
  -12.7891   14.8833   27.2374 H   0  0  0  0  0  0  0  0  0  0  0  0
  -12.8301   14.4839   28.9943 H   0  0  0  0  0  0  0  0  0  0  0  0
  -13.3906   12.4939   26.3819 H   0  0  0  0  0  0  0  0  0  0  0  0
  -18.1617   13.2974   29.2627 H   0  0  0  0  0  0  0  0  0  0  0  0
  -12.7356    9.5195   26.4608 H   0  0  0  0  0  0  0  0  0  0  0  0
  -11.7904    9.1557   24.4773 H   0  0  0  0  0  0  0  0  0  0  0  0
  -13.4499    9.1950   23.7908 H   0  0  0  0  0  0  0  0  0  0  0  0
  -12.4425   10.6822   23.7908 H   0  0  0  0  0  0  0  0  0  0  0  0
  -13.0048   11.7439   27.1535 H   0  0  0  0  0  0  0  0  0  0  0  0
  -12.0641   11.9488   25.6371 H   0  0  0  0  0  0  0  0  0  0  0  0
  -13.8391   12.2247   25.6371 H   0  0  0  0  0  0  0  0  0  0  0  0
  -20.8988   19.6060   37.0047 H   0  0  0  0  0  0  0  0  0  0  0  0
  -20.8844   17.8709   36.5901 H   0  0  0  0  0  0  0  0  0  0  0  0
  -17.0244   18.3715   32.8222 H   0  0  0  0  0  0  0  0  0  0  0  0
  -16.0911   17.2867   31.3776 H   0  0  0  0  0  0  0  0  0  0  0  0
  -19.4637   14.6544   30.8696 H   0  0  0  0  0  0  0  0  0  0  0  0
  -18.2763    7.7094   25.6291 H   0  0  0  0  0  0  0  0  0  0  0  0
  -18.4415    8.7383   24.1659 H   0  0  0  0  0  0  0  0  0  0  0  0
  -17.2967    7.3541   24.1659 H   0  0  0  0  0  0  0  0  0  0  0  0
  1  2  1  0
  1 15  1  0
  1 16  2  0
  2  3  1  6
  2  4  1  0
  2 17  1  0
  5 17  1  0
  5 18  2  0
  6 18  1  0
  6 21  1  0
  6 28  2  0
  7  8  1  0
  7 23  1  0
  8 24  1  0
  9 24  1  0
  9 25  2  0
 10 11  2  0
 10 22  1  0
 10 27  1  0
 11 28  1  0
 12 13  1  0
 12 14  1  0
 12 34  1  0
 17 20  1  0
 18 19  1  0
 19 20  2  0
 21 22  2  0
 22 23  1  0
 24 27  1  0
 25 26  1  0
 25 29  1  0
 26 27  2  0
 29 30  2  0
 29 34  1  0
 30 31  1  0
 31 32  1  0
 31 33  2  0
 33 34  1  0
  3 35  1  0
  3 36  1  0
  3 37  1  0
  4 38  1  0
  4 39  1  0
  4 40  1  0
  5 41  1  0
  7 42  1  0
  7 43  1  0
  8 44  1  0
  8 45  1  0
  9 46  1  0
 11 47  1  0
 12 48  1  1
 13 49  1  0
 13 50  1  0
 13 51  1  0
 14 52  1  0
 14 53  1  0
 14 54  1  0
 15 55  1  0
 15 56  1  0
 19 57  1  0
 21 58  1  0
 28 59  1  0
 32 60  1  0
 32 61  1  0
 32 62  1  0
M  END
>  <filename_input>  (17) 
8EXL_799_docked.sdf

>  <pdb_id>  (17) 
8EXL_799

>  <pose_rank>  (17) 
16

>  <num_atoms_heavy>  (17) 
34

>  <num_torsions>  (17) 
5

>  <pose>  (17) 
[-17.843104943459394, 16.0519586725723, 31.211401915924682, -2.6128250890035942, 5.287670845861381, 1.8931918798228684, -2.745958673242165, 1.646517458403635, 0.09429758681903369, 3.8697877734947035, -0.8643064970871749]

>  <energy>  (17) 
-1209.7040441305908

>  <inter_energy>  (17) 
-1388.204002724073

>  <intra_energy>  (17) 
183.0380790318248

>  <rmsd>  (17) 
2.28426

>  <sdf_rank>  (17) 
0

$$$$

     RDKit          3D

 62 66  0  0  0  0  0  0  0  0999 V2000
  -20.4846   19.1246   36.5719 C   0  0  0  0  0  0  0  0  0  0  0  0
  -19.6594   19.4138   35.3542 C   0  0  2  0  0  0  0  0  0  0  0  0
  -18.1733   19.4255   35.7176 C   0  0  0  0  0  0  0  0  0  0  0  0
  -20.0829   20.7686   34.7782 C   0  0  0  0  0  0  0  0  0  0  0  0
  -18.9236   17.7595   33.6002 C   0  0  0  0  0  0  0  0  0  0  0  0
  -18.9319   15.9345   31.8140 C   0  0  0  0  0  0  0  0  0  0  0  0
  -15.6484   15.8699   28.5082 C   0  0  0  0  0  0  0  0  0  0  0  0
  -14.9784   14.5371   28.2036 C   0  0  0  0  0  0  0  0  0  0  0  0
  -15.9160   12.3770   27.3478 C   0  0  0  0  0  0  0  0  0  0  0  0
  -17.6982   14.2938   29.9269 C   0  0  0  0  0  0  0  0  0  0  0  0
  -18.9478   13.9696   30.4479 C   0  0  0  0  0  0  0  0  0  0  0  0
  -15.1348    9.9536   25.7639 C   0  0  1  0  0  0  0  0  0  0  0  0
  -15.1692   11.2030   24.8849 C   0  0  0  0  0  0  0  0  0  0  0  0
  -14.3464   10.1671   27.0564 C   0  0  0  0  0  0  0  0  0  0  0  0
  -21.6598   19.7686   36.7720 N   0  0  0  0  0  0  0  0  0  0  0  0
  -20.0936   18.2981   37.3643 O   0  0  0  0  0  0  0  0  0  0  0  0
  -19.8754   18.3576   34.3568 N   0  0  0  0  0  0  0  0  0  0  0  0
  -19.5636   16.8424   32.8109 C   0  0  0  0  0  0  0  0  0  0  0  0
  -20.9384   16.8769   33.1316 C   0  0  0  0  0  0  0  0  0  0  0  0
  -21.1149   17.7856   34.0520 N   0  0  0  0  0  0  0  0  0  0  0  0
  -17.6963   16.2842   31.3053 C   0  0  0  0  0  0  0  0  0  0  0  0
  -17.0706   15.4891   30.3710 C   0  0  0  0  0  0  0  0  0  0  0  0
  -15.8759   15.8885   29.9189 O   0  0  0  0  0  0  0  0  0  0  0  0
  -15.9707   13.4723   28.1590 N   0  0  0  0  0  0  0  0  0  0  0  0
  -17.0124   11.6137   27.6012 C   0  0  0  0  0  0  0  0  0  0  0  0
  -17.7307   12.2439   28.5602 N   0  0  0  0  0  0  0  0  0  0  0  0
  -17.1376   13.3580   28.9175 C   0  0  0  0  0  0  0  0  0  0  0  0
  -19.5651   14.7698   31.3875 C   0  0  0  0  0  0  0  0  0  0  0  0
  -17.3169   10.3158   26.9652 C   0  0  0  0  0  0  0  0  0  0  0  0
  -18.4585    9.6600   27.0356 N   0  0  0  0  0  0  0  0  0  0  0  0
  -18.3875    8.5494   26.3127 C   0  0  0  0  0  0  0  0  0  0  0  0
  -19.4871    7.5253   26.1408 C   0  0  0  0  0  0  0  0  0  0  0  0
  -17.2082    8.4848   25.7621 N   0  0  0  0  0  0  0  0  0  0  0  0
  -16.5021    9.6195   26.1606 N   0  0  0  0  0  0  0  0  0  0  0  0
  -18.0635   19.4264   36.8121 H   0  0  0  0  0  0  0  0  0  0  0  0
  -17.6869   18.5312   35.3010 H   0  0  0  0  0  0  0  0  0  0  0  0
  -17.7011   20.3274   35.3010 H   0  0  0  0  0  0  0  0  0  0  0  0
  -20.3007   21.4650   35.6013 H   0  0  0  0  0  0  0  0  0  0  0  0
  -19.2689   21.1747   34.1599 H   0  0  0  0  0  0  0  0  0  0  0  0
  -20.9833   20.6387   34.1599 H   0  0  0  0  0  0  0  0  0  0  0  0
  -17.8441   17.9705   33.6170 H   0  0  0  0  0  0  0  0  0  0  0  0
  -14.9912   16.7025   28.2169 H   0  0  0  0  0  0  0  0  0  0  0  0
  -16.5889   15.9828   27.9489 H   0  0  0  0  0  0  0  0  0  0  0  0
  -14.4698   14.6004   27.2303 H   0  0  0  0  0  0  0  0  0  0  0  0
  -14.2485   14.3137   28.9957 H   0  0  0  0  0  0  0  0  0  0  0  0
  -15.1248   12.1512   26.6177 H   0  0  0  0  0  0  0  0  0  0  0  0
  -19.4540   13.0558   30.1032 H   0  0  0  0  0  0  0  0  0  0  0  0
  -14.6533    9.1597   25.1741 H   0  0  0  0  0  0  0  0  0  0  0  0
  -15.1940   12.0991   25.5223 H   0  0  0  0  0  0  0  0  0  0  0  0
  -14.2715   11.2293   24.2498 H   0  0  0  0  0  0  0  0  0  0  0  0
  -16.0671   11.1798   24.2498 H   0  0  0  0  0  0  0  0  0  0  0  0
  -15.0036    9.9891   27.9204 H   0  0  0  0  0  0  0  0  0  0  0  0
  -13.4995    9.4659   27.0894 H   0  0  0  0  0  0  0  0  0  0  0  0
  -13.9690   11.1998   27.0894 H   0  0  0  0  0  0  0  0  0  0  0  0
  -22.2221   19.5654   37.6107 H   0  0  0  0  0  0  0  0  0  0  0  0
  -21.9908   20.4613   36.0855 H   0  0  0  0  0  0  0  0  0  0  0  0
  -21.7228   16.2486   32.6843 H   0  0  0  0  0  0  0  0  0  0  0  0
  -17.2070   17.2072   31.6499 H   0  0  0  0  0  0  0  0  0  0  0  0
  -20.5476   14.4904   31.7956 H   0  0  0  0  0  0  0  0  0  0  0  0
  -19.8400    7.1967   27.1294 H   0  0  0  0  0  0  0  0  0  0  0  0
  -20.3226    7.9745   25.5839 H   0  0  0  0  0  0  0  0  0  0  0  0
  -19.0984    6.6600   25.5839 H   0  0  0  0  0  0  0  0  0  0  0  0
  1  2  1  0
  1 15  1  0
  1 16  2  0
  2  3  1  1
  2  4  1  0
  2 17  1  0
  5 17  1  0
  5 18  2  0
  6 18  1  0
  6 21  1  0
  6 28  2  0
  7  8  1  0
  7 23  1  0
  8 24  1  0
  9 24  1  0
  9 25  2  0
 10 11  2  0
 10 22  1  0
 10 27  1  0
 11 28  1  0
 12 13  1  0
 12 14  1  0
 12 34  1  0
 17 20  1  0
 18 19  1  0
 19 20  2  0
 21 22  2  0
 22 23  1  0
 24 27  1  0
 25 26  1  0
 25 29  1  0
 26 27  2  0
 29 30  2  0
 29 34  1  0
 30 31  1  0
 31 32  1  0
 31 33  2  0
 33 34  1  0
  3 35  1  0
  3 36  1  0
  3 37  1  0
  4 38  1  0
  4 39  1  0
  4 40  1  0
  5 41  1  0
  7 42  1  0
  7 43  1  0
  8 44  1  0
  8 45  1  0
  9 46  1  0
 11 47  1  0
 12 48  1  6
 13 49  1  0
 13 50  1  0
 13 51  1  0
 14 52  1  0
 14 53  1  0
 14 54  1  0
 15 55  1  0
 15 56  1  0
 19 57  1  0
 21 58  1  0
 28 59  1  0
 32 60  1  0
 32 61  1  0
 32 62  1  0
M  END
>  <filename_input>  (18) 
8EXL_799_docked.sdf

>  <pdb_id>  (18) 
8EXL_799

>  <pose_rank>  (18) 
17

>  <num_atoms_heavy>  (18) 
34

>  <num_torsions>  (18) 
5

>  <pose>  (18) 
[-18.93189931199536, 15.934528186403188, 31.814020339059173, -2.290645973769302, 5.908701357304845, -0.4949303831754146, -2.902400036822378, -3.3323536852987985, 2.974362101385598, -1.5796183435139244, -1.0549260386521262]

>  <energy>  (18) 
-716.8644374240176

>  <inter_energy>  (18) 
-809.4812316580534

>  <intra_energy>  (18) 
105.97602008720688

>  <rmsd>  (18) 
2.74305

>  <sdf_rank>  (18) 
0

$$$$

     RDKit          3D

 62 66  0  0  0  0  0  0  0  0999 V2000
  -15.2374    8.0037   24.9987 C   0  0  0  0  0  0  0  0  0  0  0  0
  -14.9506    9.4626   25.1903 C   0  0  2  0  0  0  0  0  0  0  0  0
  -15.6115   10.2783   24.0775 C   0  0  0  0  0  0  0  0  0  0  0  0
  -13.4336    9.6749   25.1844 C   0  0  0  0  0  0  0  0  0  0  0  0
  -15.8047   11.1806   26.8254 C   0  0  0  0  0  0  0  0  0  0  0  0
  -16.7668   12.2926   28.9132 C   0  0  0  0  0  0  0  0  0  0  0  0
  -15.1560   15.7720   31.5615 C   0  0  0  0  0  0  0  0  0  0  0  0
  -16.0030   17.0330   31.6634 C   0  0  0  0  0  0  0  0  0  0  0  0
  -18.3176   17.3981   32.5503 C   0  0  0  0  0  0  0  0  0  0  0  0
  -17.5624   14.4794   30.4495 C   0  0  0  0  0  0  0  0  0  0  0  0
  -18.4564   13.4564   30.1455 C   0  0  0  0  0  0  0  0  0  0  0  0
  -20.1060   17.1326   35.4850 C   0  0  1  0  0  0  0  0  0  0  0  0
  -19.6740   18.4814   36.0581 C   0  0  0  0  0  0  0  0  0  0  0  0
  -20.8626   16.2779   36.5024 C   0  0  0  0  0  0  0  0  0  0  0  0
  -16.4938    7.5839   24.7142 N   0  0  0  0  0  0  0  0  0  0  0  0
  -14.3288    7.2095   25.0868 O   0  0  0  0  0  0  0  0  0  0  0  0
  -15.5118    9.9054   26.4734 N   0  0  0  0  0  0  0  0  0  0  0  0
  -16.3009   11.1354   28.1003 C   0  0  0  0  0  0  0  0  0  0  0  0
  -16.3309    9.7835   28.5075 C   0  0  0  0  0  0  0  0  0  0  0  0
  -15.8556    9.0581   27.5318 N   0  0  0  0  0  0  0  0  0  0  0  0
  -15.8575   13.2893   29.2091 C   0  0  0  0  0  0  0  0  0  0  0  0
  -16.2292   14.3767   29.9680 C   0  0  0  0  0  0  0  0  0  0  0  0
  -15.2975   15.3042   30.2185 O   0  0  0  0  0  0  0  0  0  0  0  0
  -17.4077   16.6852   31.8261 N   0  0  0  0  0  0  0  0  0  0  0  0
  -19.5164   16.7634   32.4563 C   0  0  0  0  0  0  0  0  0  0  0  0
  -19.3346   15.6689   31.6806 N   0  0  0  0  0  0  0  0  0  0  0  0
  -18.0862   15.5907   31.2859 C   0  0  0  0  0  0  0  0  0  0  0  0
  -18.0764   12.3729   29.3801 C   0  0  0  0  0  0  0  0  0  0  0  0
  -20.7807   17.2288   33.0619 C   0  0  0  0  0  0  0  0  0  0  0  0
  -21.8922   17.5268   32.4183 N   0  0  0  0  0  0  0  0  0  0  0  0
  -22.8370   17.8729   33.2834 C   0  0  0  0  0  0  0  0  0  0  0  0
  -24.2507   18.2875   32.9416 C   0  0  0  0  0  0  0  0  0  0  0  0
  -22.3492   17.7903   34.4889 N   0  0  0  0  0  0  0  0  0  0  0  0
  -21.0256   17.3667   34.3723 N   0  0  0  0  0  0  0  0  0  0  0  0
  -16.2447   11.0599   24.5224 H   0  0  0  0  0  0  0  0  0  0  0  0
  -14.8345   10.7461   23.4549 H   0  0  0  0  0  0  0  0  0  0  0  0
  -16.2303    9.6153   23.4549 H   0  0  0  0  0  0  0  0  0  0  0  0
  -13.0665    9.7262   26.2201 H   0  0  0  0  0  0  0  0  0  0  0  0
  -12.9479    8.8359   24.6645 H   0  0  0  0  0  0  0  0  0  0  0  0
  -13.1969   10.6149   24.6645 H   0  0  0  0  0  0  0  0  0  0  0  0
  -15.6696   12.0794   26.2058 H   0  0  0  0  0  0  0  0  0  0  0  0
  -14.1019   16.0022   31.7760 H   0  0  0  0  0  0  0  0  0  0  0  0
  -15.4802   15.0115   32.2871 H   0  0  0  0  0  0  0  0  0  0  0  0
  -15.6723   17.6234   32.5307 H   0  0  0  0  0  0  0  0  0  0  0  0
  -15.8837   17.6203   30.7409 H   0  0  0  0  0  0  0  0  0  0  0  0
  -18.1170   18.3229   33.1111 H   0  0  0  0  0  0  0  0  0  0  0  0
  -19.4878   13.5131   30.5235 H   0  0  0  0  0  0  0  0  0  0  0  0
  -19.1900   16.6053   35.1805 H   0  0  0  0  0  0  0  0  0  0  0  0
  -19.6890   18.4347   37.1570 H   0  0  0  0  0  0  0  0  0  0  0  0
  -18.6557   18.7164   35.7150 H   0  0  0  0  0  0  0  0  0  0  0  0
  -20.3663   19.2643   35.7150 H   0  0  0  0  0  0  0  0  0  0  0  0
  -20.5866   16.5897   37.5205 H   0  0  0  0  0  0  0  0  0  0  0  0
  -21.9452   16.4100   36.3593 H   0  0  0  0  0  0  0  0  0  0  0  0
  -20.6002   15.2193   36.3593 H   0  0  0  0  0  0  0  0  0  0  0  0
  -16.6842    6.5801   24.5837 H   0  0  0  0  0  0  0  0  0  0  0  0
  -17.2585    8.2686   24.6284 H   0  0  0  0  0  0  0  0  0  0  0  0
  -16.6915    9.4078   29.4764 H   0  0  0  0  0  0  0  0  0  0  0  0
  -14.8259   13.2137   28.8348 H   0  0  0  0  0  0  0  0  0  0  0  0
  -18.8007   11.5802   29.1413 H   0  0  0  0  0  0  0  0  0  0  0  0
  -24.8184   18.4540   33.8690 H   0  0  0  0  0  0  0  0  0  0  0  0
  -24.2283   19.2169   32.3536 H   0  0  0  0  0  0  0  0  0  0  0  0
  -24.7338   17.4932   32.3536 H   0  0  0  0  0  0  0  0  0  0  0  0
  1  2  1  0
  1 15  1  0
  1 16  2  0
  2  3  1  6
  2  4  1  0
  2 17  1  0
  5 17  1  0
  5 18  2  0
  6 18  1  0
  6 21  1  0
  6 28  2  0
  7  8  1  0
  7 23  1  0
  8 24  1  0
  9 24  1  0
  9 25  2  0
 10 11  2  0
 10 22  1  0
 10 27  1  0
 11 28  1  0
 12 13  1  0
 12 14  1  0
 12 34  1  0
 17 20  1  0
 18 19  1  0
 19 20  2  0
 21 22  2  0
 22 23  1  0
 24 27  1  0
 25 26  1  0
 25 29  1  0
 26 27  2  0
 29 30  2  0
 29 34  1  0
 30 31  1  0
 31 32  1  0
 31 33  2  0
 33 34  1  0
  3 35  1  0
  3 36  1  0
  3 37  1  0
  4 38  1  0
  4 39  1  0
  4 40  1  0
  5 41  1  0
  7 42  1  0
  7 43  1  0
  8 44  1  0
  8 45  1  0
  9 46  1  0
 11 47  1  0
 12 48  1  6
 13 49  1  0
 13 50  1  0
 13 51  1  0
 14 52  1  0
 14 53  1  0
 14 54  1  0
 15 55  1  0
 15 56  1  0
 19 57  1  0
 21 58  1  0
 28 59  1  0
 32 60  1  0
 32 61  1  0
 32 62  1  0
M  END
>  <filename_input>  (19) 
8EXL_799_docked.sdf

>  <pdb_id>  (19) 
8EXL_799

>  <pose_rank>  (19) 
18

>  <num_atoms_heavy>  (19) 
34

>  <num_torsions>  (19) 
5

>  <pose>  (19) 
[-16.766838316082456, 12.292612797497679, 28.91320721120376, 2.577899532003463, 1.5553045566469945, -0.08356572727339015, 2.1378364572064803, -0.306459759945313, 2.2936914161834108, -1.965335418272062, 1.9616011354071299]

>  <energy>  (19) 
-813.5530992693357

>  <inter_energy>  (19) 
-787.4989313693511

>  <intra_energy>  (19) 
7.724032258302491

>  <rmsd>  (19) 
10.3246

>  <sdf_rank>  (19) 
0

$$$$

     RDKit          3D

 62 66  0  0  0  0  0  0  0  0999 V2000
  -14.5440    7.1929   24.3062 C   0  0  0  0  0  0  0  0  0  0  0  0
  -15.5498    7.5525   25.3580 C   0  0  2  0  0  0  0  0  0  0  0  0
  -15.1976    6.8647   26.6783 C   0  0  0  0  0  0  0  0  0  0  0  0
  -16.9408    7.1226   24.8819 C   0  0  0  0  0  0  0  0  0  0  0  0
  -16.0201    9.6610   26.6572 C   0  0  0  0  0  0  0  0  0  0  0  0
  -16.1482   12.1113   27.3648 C   0  0  0  0  0  0  0  0  0  0  0  0
  -14.3603   15.9416   29.3260 C   0  0  0  0  0  0  0  0  0  0  0  0
  -15.3228   17.0628   29.6929 C   0  0  0  0  0  0  0  0  0  0  0  0
  -17.2565   17.1216   31.2849 C   0  0  0  0  0  0  0  0  0  0  0  0
  -16.7524   14.2361   29.0663 C   0  0  0  0  0  0  0  0  0  0  0  0
  -17.5177   13.0732   29.0755 C   0  0  0  0  0  0  0  0  0  0  0  0
  -21.3274   15.6488   31.3270 C   0  0  1  0  0  0  0  0  0  0  0  0
  -20.9107   16.3188   30.0186 C   0  0  0  0  0  0  0  0  0  0  0  0
  -20.8948   14.1841   31.4000 C   0  0  0  0  0  0  0  0  0  0  0  0
  -13.2549    7.5924   24.4256 N   0  0  0  0  0  0  0  0  0  0  0  0
  -14.8967    6.5289   23.3581 O   0  0  0  0  0  0  0  0  0  0  0  0
  -15.5247    9.0041   25.5806 N   0  0  0  0  0  0  0  0  0  0  0  0
  -15.7865   10.9937   26.4498 C   0  0  0  0  0  0  0  0  0  0  0  0
  -15.1027   11.1293   25.2217 C   0  0  0  0  0  0  0  0  0  0  0  0
  -14.9540    9.9378   24.7094 N   0  0  0  0  0  0  0  0  0  0  0  0
  -15.3669   13.2501   27.3430 C   0  0  0  0  0  0  0  0  0  0  0  0
  -15.6467   14.3101   28.1766 C   0  0  0  0  0  0  0  0  0  0  0  0
  -14.8477   15.3814   28.1050 O   0  0  0  0  0  0  0  0  0  0  0  0
  -16.5244   16.5152   30.3067 N   0  0  0  0  0  0  0  0  0  0  0  0
  -18.3019   16.3075   31.5903 C   0  0  0  0  0  0  0  0  0  0  0  0
  -18.2036   15.2107   30.8028 N   0  0  0  0  0  0  0  0  0  0  0  0
  -17.1530   15.3009   30.0226 C   0  0  0  0  0  0  0  0  0  0  0  0
  -17.2329   12.0180   28.2332 C   0  0  0  0  0  0  0  0  0  0  0  0
  -19.3625   16.6091   32.5732 C   0  0  0  0  0  0  0  0  0  0  0  0
  -19.2101   17.2504   33.7151 N   0  0  0  0  0  0  0  0  0  0  0  0
  -20.3824   17.3737   34.3245 C   0  0  0  0  0  0  0  0  0  0  0  0
  -20.6283   18.0438   35.6579 C   0  0  0  0  0  0  0  0  0  0  0  0
  -21.2999   16.8257   33.5789 N   0  0  0  0  0  0  0  0  0  0  0  0
  -20.6671   16.3337   32.4377 N   0  0  0  0  0  0  0  0  0  0  0  0
  -15.5211    7.4965   27.5187 H   0  0  0  0  0  0  0  0  0  0  0  0
  -15.7087    5.8921   26.7329 H   0  0  0  0  0  0  0  0  0  0  0  0
  -14.1098    6.7107   26.7329 H   0  0  0  0  0  0  0  0  0  0  0  0
  -17.5818    6.9245   25.7536 H   0  0  0  0  0  0  0  0  0  0  0  0
  -17.3850    7.9254   24.2750 H   0  0  0  0  0  0  0  0  0  0  0  0
  -16.8546    6.2092   24.2750 H   0  0  0  0  0  0  0  0  0  0  0  0
  -16.5149    9.2100   27.5300 H   0  0  0  0  0  0  0  0  0  0  0  0
  -13.3455   16.3415   29.1837 H   0  0  0  0  0  0  0  0  0  0  0  0
  -14.3060   15.1836   30.1213 H   0  0  0  0  0  0  0  0  0  0  0  0
  -14.8317   17.7454   30.4020 H   0  0  0  0  0  0  0  0  0  0  0  0
  -15.6034   17.6074   28.7793 H   0  0  0  0  0  0  0  0  0  0  0  0
  -17.0396   18.0968   31.7452 H   0  0  0  0  0  0  0  0  0  0  0  0
  -18.3677   12.9938   29.7692 H   0  0  0  0  0  0  0  0  0  0  0  0
  -22.4247   15.7044   31.3806 H   0  0  0  0  0  0  0  0  0  0  0  0
  -20.3417   17.2338   30.2402 H   0  0  0  0  0  0  0  0  0  0  0  0
  -20.2825   15.6282   29.4368 H   0  0  0  0  0  0  0  0  0  0  0  0
  -21.8079   16.5769   29.4368 H   0  0  0  0  0  0  0  0  0  0  0  0
  -20.8051   13.8803   32.4534 H   0  0  0  0  0  0  0  0  0  0  0  0
  -21.6454   13.5547   30.8996 H   0  0  0  0  0  0  0  0  0  0  0  0
  -19.9227   14.0635   30.8996 H   0  0  0  0  0  0  0  0  0  0  0  0
  -12.5687    7.3420   23.6994 H   0  0  0  0  0  0  0  0  0  0  0  0
  -12.9610    8.1465   25.2427 H   0  0  0  0  0  0  0  0  0  0  0  0
  -14.7562   12.0730   24.7752 H   0  0  0  0  0  0  0  0  0  0  0  0
  -14.5125   13.3110   26.6529 H   0  0  0  0  0  0  0  0  0  0  0  0
  -17.8565   11.1119   28.2475 H   0  0  0  0  0  0  0  0  0  0  0  0
  -20.3730   17.3479   36.4706 H   0  0  0  0  0  0  0  0  0  0  0  0
  -20.0023   18.9449   35.7364 H   0  0  0  0  0  0  0  0  0  0  0  0
  -21.6886   18.3261   35.7364 H   0  0  0  0  0  0  0  0  0  0  0  0
  1  2  1  0
  1 15  1  0
  1 16  2  0
  2  3  1  1
  2  4  1  0
  2 17  1  0
  5 17  1  0
  5 18  2  0
  6 18  1  0
  6 21  1  0
  6 28  2  0
  7  8  1  0
  7 23  1  0
  8 24  1  0
  9 24  1  0
  9 25  2  0
 10 11  2  0
 10 22  1  0
 10 27  1  0
 11 28  1  0
 12 13  1  0
 12 14  1  0
 12 34  1  0
 17 20  1  0
 18 19  1  0
 19 20  2  0
 21 22  2  0
 22 23  1  0
 24 27  1  0
 25 26  1  0
 25 29  1  0
 26 27  2  0
 29 30  2  0
 29 34  1  0
 30 31  1  0
 31 32  1  0
 31 33  2  0
 33 34  1  0
  3 35  1  0
  3 36  1  0
  3 37  1  0
  4 38  1  0
  4 39  1  0
  4 40  1  0
  5 41  1  0
  7 42  1  0
  7 43  1  0
  8 44  1  0
  8 45  1  0
  9 46  1  0
 11 47  1  0
 12 48  1  1
 13 49  1  0
 13 50  1  0
 13 51  1  0
 14 52  1  0
 14 53  1  0
 14 54  1  0
 15 55  1  0
 15 56  1  0
 19 57  1  0
 21 58  1  0
 28 59  1  0
 32 60  1  0
 32 61  1  0
 32 62  1  0
M  END
>  <filename_input>  (20) 
8EXL_799_docked.sdf

>  <pdb_id>  (20) 
8EXL_799

>  <pose_rank>  (20) 
19

>  <num_atoms_heavy>  (20) 
34

>  <num_torsions>  (20) 
5

>  <pose>  (20) 
[-16.148186964182823, 12.111301663034796, 27.36477599984797, 2.4990740998230616, 1.8447273314100605, -0.5386484720854146, 5.69227225874552, 3.224816679314949, -0.28739102096726304, 4.272795973791137, 1.6234067868968383]

>  <energy>  (20) 
-704.2414073986039

>  <inter_energy>  (20) 
-765.7737968124301

>  <intra_energy>  (20) 
75.59325804174419

>  <rmsd>  (20) 
10.0718

>  <sdf_rank>  (20) 
0

$$$$

     RDKit          3D

 62 66  0  0  0  0  0  0  0  0999 V2000
  -14.3813    7.4490   23.8917 C   0  0  0  0  0  0  0  0  0  0  0  0
  -13.6862    8.6295   24.5003 C   0  0  2  0  0  0  0  0  0  0  0  0
  -12.9044    9.3894   23.4271 C   0  0  0  0  0  0  0  0  0  0  0  0
  -12.7449    8.1364   25.6036 C   0  0  0  0  0  0  0  0  0  0  0  0
  -14.4606   10.5021   25.9997 C   0  0  0  0  0  0  0  0  0  0  0  0
  -15.9174   12.2318   27.1861 C   0  0  0  0  0  0  0  0  0  0  0  0
  -13.8562   15.9776   29.0394 C   0  0  0  0  0  0  0  0  0  0  0  0
  -14.7488   17.1285   29.4829 C   0  0  0  0  0  0  0  0  0  0  0  0
  -16.5593   17.2404   31.2111 C   0  0  0  0  0  0  0  0  0  0  0  0
  -16.3205   14.3603   28.9417 C   0  0  0  0  0  0  0  0  0  0  0  0
  -17.1245   13.2251   28.9982 C   0  0  0  0  0  0  0  0  0  0  0  0
  -20.6476   15.8122   31.5864 C   0  0  1  0  0  0  0  0  0  0  0  0
  -20.7787   14.3439   31.9883 C   0  0  0  0  0  0  0  0  0  0  0  0
  -22.0018   16.5135   31.4761 C   0  0  0  0  0  0  0  0  0  0  0  0
  -14.2613    7.1912   22.5669 N   0  0  0  0  0  0  0  0  0  0  0  0
  -15.0375    6.7224   24.6026 O   0  0  0  0  0  0  0  0  0  0  0  0
  -14.6853    9.5441   25.0683 N   0  0  0  0  0  0  0  0  0  0  0  0
  -15.6630   11.1110   26.2394 C   0  0  0  0  0  0  0  0  0  0  0  0
  -16.6282   10.5131   25.3997 C   0  0  0  0  0  0  0  0  0  0  0  0
  -16.0363    9.5779   24.7075 N   0  0  0  0  0  0  0  0  0  0  0  0
  -15.0992   13.3425   27.1158 C   0  0  0  0  0  0  0  0  0  0  0  0
  -15.2799   14.4036   27.9748 C   0  0  0  0  0  0  0  0  0  0  0  0
  -14.4502   15.4467   27.8530 O   0  0  0  0  0  0  0  0  0  0  0  0
  -15.9219   16.6178   30.1783 N   0  0  0  0  0  0  0  0  0  0  0  0
  -17.6085   16.4609   31.5857 C   0  0  0  0  0  0  0  0  0  0  0  0
  -17.6067   15.3689   30.7855 N   0  0  0  0  0  0  0  0  0  0  0  0
  -16.6126   15.4294   29.9320 C   0  0  0  0  0  0  0  0  0  0  0  0
  -16.9393   12.1686   28.1300 C   0  0  0  0  0  0  0  0  0  0  0  0
  -18.5839   16.7903   32.6449 C   0  0  0  0  0  0  0  0  0  0  0  0
  -18.3363   17.4566   33.7554 N   0  0  0  0  0  0  0  0  0  0  0  0
  -19.4543   17.5999   34.4558 C   0  0  0  0  0  0  0  0  0  0  0  0
  -19.5878   18.3015   35.7889 C   0  0  0  0  0  0  0  0  0  0  0  0
  -20.4316   17.0399   33.8006 N   0  0  0  0  0  0  0  0  0  0  0  0
  -19.8962   16.5187   32.6231 N   0  0  0  0  0  0  0  0  0  0  0  0
  -12.1953   10.0786   23.9089 H   0  0  0  0  0  0  0  0  0  0  0  0
  -12.3519    8.6739   22.8003 H   0  0  0  0  0  0  0  0  0  0  0  0
  -13.6038    9.9621   22.8003 H   0  0  0  0  0  0  0  0  0  0  0  0
  -13.1812    8.3650   26.5871 H   0  0  0  0  0  0  0  0  0  0  0  0
  -12.6055    7.0495   25.5079 H   0  0  0  0  0  0  0  0  0  0  0  0
  -11.7719    8.6407   25.5079 H   0  0  0  0  0  0  0  0  0  0  0  0
  -13.4973   10.7441   26.4723 H   0  0  0  0  0  0  0  0  0  0  0  0
  -12.8405   16.3427   28.8269 H   0  0  0  0  0  0  0  0  0  0  0  0
  -13.7719   15.2105   29.8234 H   0  0  0  0  0  0  0  0  0  0  0  0
  -14.1836   17.7865   30.1593 H   0  0  0  0  0  0  0  0  0  0  0  0
  -15.0748   17.6914   28.5959 H   0  0  0  0  0  0  0  0  0  0  0  0
  -16.2748   18.2028   31.6614 H   0  0  0  0  0  0  0  0  0  0  0  0
  -17.9246   13.1692   29.7510 H   0  0  0  0  0  0  0  0  0  0  0  0
  -20.1491   15.8331   30.6060 H   0  0  0  0  0  0  0  0  0  0  0  0
  -20.7859   14.2634   33.0854 H   0  0  0  0  0  0  0  0  0  0  0  0
  -21.7168   13.9355   31.5845 H   0  0  0  0  0  0  0  0  0  0  0  0
  -19.9276   13.7759   31.5845 H   0  0  0  0  0  0  0  0  0  0  0  0
  -22.3930   16.7161   32.4840 H   0  0  0  0  0  0  0  0  0  0  0  0
  -21.8803   17.4620   30.9324 H   0  0  0  0  0  0  0  0  0  0  0  0
  -22.7064   15.8670   30.9324 H   0  0  0  0  0  0  0  0  0  0  0  0
  -14.7415    6.3784   22.1549 H   0  0  0  0  0  0  0  0  0  0  0  0
  -13.6901    7.8080   21.9719 H   0  0  0  0  0  0  0  0  0  0  0  0
  -17.6917   10.7873   25.3394 H   0  0  0  0  0  0  0  0  0  0  0  0
  -14.2952   13.3798   26.3660 H   0  0  0  0  0  0  0  0  0  0  0  0
  -17.5924   11.2851   28.1831 H   0  0  0  0  0  0  0  0  0  0  0  0
  -19.4493   17.5735   36.6019 H   0  0  0  0  0  0  0  0  0  0  0  0
  -18.8233   19.0885   35.8673 H   0  0  0  0  0  0  0  0  0  0  0  0
  -20.5879   18.7527   35.8673 H   0  0  0  0  0  0  0  0  0  0  0  0
  1  2  1  0
  1 15  1  0
  1 16  2  0
  2  3  1  6
  2  4  1  0
  2 17  1  0
  5 17  1  0
  5 18  2  0
  6 18  1  0
  6 21  1  0
  6 28  2  0
  7  8  1  0
  7 23  1  0
  8 24  1  0
  9 24  1  0
  9 25  2  0
 10 11  2  0
 10 22  1  0
 10 27  1  0
 11 28  1  0
 12 13  1  0
 12 14  1  0
 12 34  1  0
 17 20  1  0
 18 19  1  0
 19 20  2  0
 21 22  2  0
 22 23  1  0
 24 27  1  0
 25 26  1  0
 25 29  1  0
 26 27  2  0
 29 30  2  0
 29 34  1  0
 30 31  1  0
 31 32  1  0
 31 33  2  0
 33 34  1  0
  3 35  1  0
  3 36  1  0
  3 37  1  0
  4 38  1  0
  4 39  1  0
  4 40  1  0
  5 41  1  0
  7 42  1  0
  7 43  1  0
  8 44  1  0
  8 45  1  0
  9 46  1  0
 11 47  1  0
 12 48  1  6
 13 49  1  0
 13 50  1  0
 13 51  1  0
 14 52  1  0
 14 53  1  0
 14 54  1  0
 15 55  1  0
 15 56  1  0
 19 57  1  0
 21 58  1  0
 28 59  1  0
 32 60  1  0
 32 61  1  0
 32 62  1  0
M  END
>  <filename_input>  (21) 
8EXL_799_docked.sdf

>  <pdb_id>  (21) 
8EXL_799

>  <pose_rank>  (21) 
20

>  <num_atoms_heavy>  (21) 
34

>  <num_torsions>  (21) 
5

>  <pose>  (21) 
[-15.917375406937833, 12.231825522640646, 27.18605488794158, -2.450434668242557, -1.7572588425152138, 0.605793782594176, -0.5455941124712564, -0.48579283782416505, -2.049837341929915, -2.6647508398612385, 2.7660883342537397]

>  <energy>  (21) 
-801.6731886377202

>  <inter_energy>  (21) 
-788.8730188722068

>  <intra_energy>  (21) 
15.690427303806022

>  <rmsd>  (21) 
10.2214

>  <sdf_rank>  (21) 
0

$$$$

     RDKit          3D

 62 66  0  0  0  0  0  0  0  0999 V2000
  -20.1229    5.4361   24.8302 C   0  0  0  0  0  0  0  0  0  0  0  0
  -19.7325    6.5431   23.8979 C   0  0  2  0  0  0  0  0  0  0  0  0
  -20.9630    7.3699   23.5198 C   0  0  0  0  0  0  0  0  0  0  0  0
  -19.0884    5.9351   22.6481 C   0  0  0  0  0  0  0  0  0  0  0  0
  -19.0770    8.5442   25.2836 C   0  0  0  0  0  0  0  0  0  0  0  0
  -17.7115   10.2851   26.5589 C   0  0  0  0  0  0  0  0  0  0  0  0
  -14.4478   13.3123   27.9368 C   0  0  0  0  0  0  0  0  0  0  0  0
  -14.8967   14.7240   28.2885 C   0  0  0  0  0  0  0  0  0  0  0  0
  -16.4581   15.5656   30.0580 C   0  0  0  0  0  0  0  0  0  0  0  0
  -17.2991   12.5752   28.0953 C   0  0  0  0  0  0  0  0  0  0  0  0
  -18.4165   11.7699   28.2984 C   0  0  0  0  0  0  0  0  0  0  0  0
  -20.6712   14.8406   31.2818 C   0  0  1  0  0  0  0  0  0  0  0  0
  -21.7838   14.5439   32.2861 C   0  0  0  0  0  0  0  0  0  0  0  0
  -21.1898   15.5243   30.0164 C   0  0  0  0  0  0  0  0  0  0  0  0
  -19.1749    4.6535   25.3999 N   0  0  0  0  0  0  0  0  0  0  0  0
  -21.2944    5.2617   25.0778 O   0  0  0  0  0  0  0  0  0  0  0  0
  -18.7761    7.4323   24.5702 N   0  0  0  0  0  0  0  0  0  0  0  0
  -17.8903    9.0636   25.7264 C   0  0  0  0  0  0  0  0  0  0  0  0
  -16.8523    8.2139   25.2851 C   0  0  0  0  0  0  0  0  0  0  0  0
  -17.3901    7.2459   24.5940 N   0  0  0  0  0  0  0  0  0  0  0  0
  -16.5895   11.0614   26.3441 C   0  0  0  0  0  0  0  0  0  0  0  0
  -16.3657   12.1952   27.0933 C   0  0  0  0  0  0  0  0  0  0  0  0
  -15.2577   12.8996   26.8340 O   0  0  0  0  0  0  0  0  0  0  0  0
  -16.1221   14.6825   29.0742 N   0  0  0  0  0  0  0  0  0  0  0  0
  -17.6731   15.2026   30.5486 C   0  0  0  0  0  0  0  0  0  0  0  0
  -18.0719   14.1027   29.8675 N   0  0  0  0  0  0  0  0  0  0  0  0
  -17.1694   13.7639   28.9779 C   0  0  0  0  0  0  0  0  0  0  0  0
  -18.6350   10.6382   27.5395 C   0  0  0  0  0  0  0  0  0  0  0  0
  -18.4202   15.9209   31.6011 C   0  0  0  0  0  0  0  0  0  0  0  0
  -17.9491   16.8727   32.3825 N   0  0  0  0  0  0  0  0  0  0  0  0
  -18.9091   17.3164   33.1841 C   0  0  0  0  0  0  0  0  0  0  0  0
  -18.7686   18.4015   34.2282 C   0  0  0  0  0  0  0  0  0  0  0  0
  -20.0068   16.6658   32.9201 N   0  0  0  0  0  0  0  0  0  0  0  0
  -19.7187   15.7659   31.8943 N   0  0  0  0  0  0  0  0  0  0  0  0
  -21.4706    7.7109   24.4342 H   0  0  0  0  0  0  0  0  0  0  0  0
  -20.6506    8.2420   22.9268 H   0  0  0  0  0  0  0  0  0  0  0  0
  -21.6524    6.7510   22.9268 H   0  0  0  0  0  0  0  0  0  0  0  0
  -18.3189    5.2087   22.9486 H   0  0  0  0  0  0  0  0  0  0  0  0
  -19.8584    5.4268   22.0491 H   0  0  0  0  0  0  0  0  0  0  0  0
  -18.6253    6.7330   22.0491 H   0  0  0  0  0  0  0  0  0  0  0  0
  -20.0815    8.9513   25.4710 H   0  0  0  0  0  0  0  0  0  0  0  0
  -13.3854   13.3098   27.6517 H   0  0  0  0  0  0  0  0  0  0  0  0
  -14.5595   12.6310   28.7933 H   0  0  0  0  0  0  0  0  0  0  0  0
  -14.1078   15.2210   28.8721 H   0  0  0  0  0  0  0  0  0  0  0  0
  -15.0855   15.2818   27.3594 H   0  0  0  0  0  0  0  0  0  0  0  0
  -15.8531   16.4203   30.3948 H   0  0  0  0  0  0  0  0  0  0  0  0
  -19.1407   12.0416   29.0805 H   0  0  0  0  0  0  0  0  0  0  0  0
  -20.2178   13.8756   31.0110 H   0  0  0  0  0  0  0  0  0  0  0  0
  -21.3922   14.6483   33.3087 H   0  0  0  0  0  0  0  0  0  0  0  0
  -22.6116   15.2527   32.1363 H   0  0  0  0  0  0  0  0  0  0  0  0
  -22.1488   13.5171   32.1363 H   0  0  0  0  0  0  0  0  0  0  0  0
  -21.8329   16.3721   30.2950 H   0  0  0  0  0  0  0  0  0  0  0  0
  -20.3393   15.8891   29.4218 H   0  0  0  0  0  0  0  0  0  0  0  0
  -21.7704   14.8036   29.4218 H   0  0  0  0  0  0  0  0  0  0  0  0
  -19.4497    3.8946   26.0397 H   0  0  0  0  0  0  0  0  0  0  0  0
  -18.1792    4.8177   25.1933 H   0  0  0  0  0  0  0  0  0  0  0  0
  -15.7791    8.3449   25.4882 H   0  0  0  0  0  0  0  0  0  0  0  0
  -15.8672   10.7712   25.5669 H   0  0  0  0  0  0  0  0  0  0  0  0
  -19.5300   10.0211   27.7076 H   0  0  0  0  0  0  0  0  0  0  0  0
  -18.8264   17.9546   35.2316 H   0  0  0  0  0  0  0  0  0  0  0  0
  -17.7979   18.9044   34.1061 H   0  0  0  0  0  0  0  0  0  0  0  0
  -19.5793   19.1349   34.1061 H   0  0  0  0  0  0  0  0  0  0  0  0
  1  2  1  0
  1 15  1  0
  1 16  2  0
  2  3  1  6
  2  4  1  0
  2 17  1  0
  5 17  1  0
  5 18  2  0
  6 18  1  0
  6 21  1  0
  6 28  2  0
  7  8  1  0
  7 23  1  0
  8 24  1  0
  9 24  1  0
  9 25  2  0
 10 11  2  0
 10 22  1  0
 10 27  1  0
 11 28  1  0
 12 13  1  0
 12 14  1  0
 12 34  1  0
 17 20  1  0
 18 19  1  0
 19 20  2  0
 21 22  2  0
 22 23  1  0
 24 27  1  0
 25 26  1  0
 25 29  1  0
 26 27  2  0
 29 30  2  0
 29 34  1  0
 30 31  1  0
 31 32  1  0
 31 33  2  0
 33 34  1  0
  3 35  1  0
  3 36  1  0
  3 37  1  0
  4 38  1  0
  4 39  1  0
  4 40  1  0
  5 41  1  0
  7 42  1  0
  7 43  1  0
  8 44  1  0
  8 45  1  0
  9 46  1  0
 11 47  1  0
 12 48  1  6
 13 49  1  0
 13 50  1  0
 13 51  1  0
 14 52  1  0
 14 53  1  0
 14 54  1  0
 15 55  1  0
 15 56  1  0
 19 57  1  0
 21 58  1  0
 28 59  1  0
 32 60  1  0
 32 61  1  0
 32 62  1  0
M  END
>  <filename_input>  (22) 
8EXL_799_docked.sdf

>  <pdb_id>  (22) 
8EXL_799

>  <pose_rank>  (22) 
21

>  <num_atoms_heavy>  (22) 
34

>  <num_torsions>  (22) 
5

>  <pose>  (22) 
[-17.711496382052008, 10.28507498417869, 26.558868051213626, 2.818038469129142, 1.3630171840473382, -0.764469588720675, -0.17191064360507277, 0.5341250902460839, 0.8108922637220758, -0.7852348203539803, -0.26346273138531656]

>  <energy>  (22) 
-648.5165942038481

>  <inter_energy>  (22) 
-659.5757497516297

>  <intra_energy>  (22) 
20.140195196312412

>  <rmsd>  (22) 
10.0622

>  <sdf_rank>  (22) 
0

$$$$

     RDKit          3D

 62 66  0  0  0  0  0  0  0  0999 V2000
  -18.2902    7.2763   26.8128 C   0  0  0  0  0  0  0  0  0  0  0  0
  -18.0372    8.3854   25.8365 C   0  0  2  0  0  0  0  0  0  0  0  0
  -19.3379    8.7681   25.1279 C   0  0  0  0  0  0  0  0  0  0  0  0
  -16.9876    7.9227   24.8212 C   0  0  0  0  0  0  0  0  0  0  0  0
  -18.2826   10.3930   27.3412 C   0  0  0  0  0  0  0  0  0  0  0  0
  -17.7800   12.4861   28.7151 C   0  0  0  0  0  0  0  0  0  0  0  0
  -15.8182   15.8914   31.2190 C   0  0  0  0  0  0  0  0  0  0  0  0
  -16.6446   17.1435   31.4787 C   0  0  0  0  0  0  0  0  0  0  0  0
  -18.8120   17.4667   32.6934 C   0  0  0  0  0  0  0  0  0  0  0  0
  -18.3551   14.6193   30.4162 C   0  0  0  0  0  0  0  0  0  0  0  0
  -19.2812   13.6008   30.2088 C   0  0  0  0  0  0  0  0  0  0  0  0
  -20.0227   18.9175   35.0491 C   0  0  1  0  0  0  0  0  0  0  0  0
  -20.0112   20.2916   34.3809 C   0  0  0  0  0  0  0  0  0  0  0  0
  -20.1962   19.0040   36.5657 C   0  0  0  0  0  0  0  0  0  0  0  0
  -19.0579    6.2164   26.4620 N   0  0  0  0  0  0  0  0  0  0  0  0
  -17.7871    7.3343   27.9117 O   0  0  0  0  0  0  0  0  0  0  0  0
  -17.5474    9.5674   26.5577 N   0  0  0  0  0  0  0  0  0  0  0  0
  -17.4311   11.3574   27.8087 C   0  0  0  0  0  0  0  0  0  0  0  0
  -16.1404   11.0773   27.3089 C   0  0  0  0  0  0  0  0  0  0  0  0
  -16.2205   10.0100   26.5615 N   0  0  0  0  0  0  0  0  0  0  0  0
  -16.8397   13.4786   28.9115 C   0  0  0  0  0  0  0  0  0  0  0  0
  -17.1028   14.5397   29.7490 C   0  0  0  0  0  0  0  0  0  0  0  0
  -16.1466   15.4647   29.8952 O   0  0  0  0  0  0  0  0  0  0  0  0
  -18.0119   16.7823   31.8263 N   0  0  0  0  0  0  0  0  0  0  0  0
  -20.0110   16.8280   32.7490 C   0  0  0  0  0  0  0  0  0  0  0  0
  -19.9384   15.7592   31.9212 N   0  0  0  0  0  0  0  0  0  0  0  0
  -18.7578   15.7009   31.3526 C   0  0  0  0  0  0  0  0  0  0  0  0
  -19.0109   12.5438   29.3639 C   0  0  0  0  0  0  0  0  0  0  0  0
  -21.1783   17.2666   33.5407 C   0  0  0  0  0  0  0  0  0  0  0  0
  -22.4111   16.8116   33.4331 N   0  0  0  0  0  0  0  0  0  0  0  0
  -23.1919   17.4048   34.3272 C   0  0  0  0  0  0  0  0  0  0  0  0
  -24.6717   17.1600   34.5209 C   0  0  0  0  0  0  0  0  0  0  0  0
  -22.4705   18.2359   35.0249 N   0  0  0  0  0  0  0  0  0  0  0  0
  -21.1644   18.1572   34.5422 N   0  0  0  0  0  0  0  0  0  0  0  0
  -20.1105    8.9954   25.8771 H   0  0  0  0  0  0  0  0  0  0  0  0
  -19.1657    9.6536   24.4985 H   0  0  0  0  0  0  0  0  0  0  0  0
  -19.6728    7.9304   24.4985 H   0  0  0  0  0  0  0  0  0  0  0  0
  -16.1074    7.5347   25.3548 H   0  0  0  0  0  0  0  0  0  0  0  0
  -17.4131    7.1288   24.1899 H   0  0  0  0  0  0  0  0  0  0  0  0
  -16.6886    8.7725   24.1899 H   0  0  0  0  0  0  0  0  0  0  0  0
  -19.3571   10.3050   27.5597 H   0  0  0  0  0  0  0  0  0  0  0  0
  -14.7449   16.1213   31.2903 H   0  0  0  0  0  0  0  0  0  0  0  0
  -16.0359   15.1068   31.9586 H   0  0  0  0  0  0  0  0  0  0  0  0
  -16.1962   17.7087   32.3091 H   0  0  0  0  0  0  0  0  0  0  0  0
  -16.6574   17.7598   30.5677 H   0  0  0  0  0  0  0  0  0  0  0  0
  -18.5360   18.3749   33.2493 H   0  0  0  0  0  0  0  0  0  0  0  0
  -20.2493   13.6394   30.7297 H   0  0  0  0  0  0  0  0  0  0  0  0
  -19.0567   18.4426   34.8225 H   0  0  0  0  0  0  0  0  0  0  0  0
  -20.0046   21.0748   35.1532 H   0  0  0  0  0  0  0  0  0  0  0  0
  -19.1122   20.3870   33.7542 H   0  0  0  0  0  0  0  0  0  0  0  0
  -20.9085   20.4020   33.7542 H   0  0  0  0  0  0  0  0  0  0  0  0
  -19.3171   18.5659   37.0609 H   0  0  0  0  0  0  0  0  0  0  0  0
  -20.2976   20.0580   36.8637 H   0  0  0  0  0  0  0  0  0  0  0  0
  -21.0988   18.4503   36.8637 H   0  0  0  0  0  0  0  0  0  0  0  0
  -19.2279    5.4576   27.1375 H   0  0  0  0  0  0  0  0  0  0  0  0
  -19.4715    6.1695   25.5199 H   0  0  0  0  0  0  0  0  0  0  0  0
  -15.2280   11.6566   27.5134 H   0  0  0  0  0  0  0  0  0  0  0  0
  -15.8710   13.4210   28.3936 H   0  0  0  0  0  0  0  0  0  0  0  0
  -19.7603   11.7546   29.2043 H   0  0  0  0  0  0  0  0  0  0  0  0
  -24.8994   17.1223   35.5965 H   0  0  0  0  0  0  0  0  0  0  0  0
  -25.2426   17.9759   34.0536 H   0  0  0  0  0  0  0  0  0  0  0  0
  -24.9495   16.2037   34.0536 H   0  0  0  0  0  0  0  0  0  0  0  0
  1  2  1  0
  1 15  1  0
  1 16  2  0
  2  3  1  6
  2  4  1  0
  2 17  1  0
  5 17  1  0
  5 18  2  0
  6 18  1  0
  6 21  1  0
  6 28  2  0
  7  8  1  0
  7 23  1  0
  8 24  1  0
  9 24  1  0
  9 25  2  0
 10 11  2  0
 10 22  1  0
 10 27  1  0
 11 28  1  0
 12 13  1  0
 12 14  1  0
 12 34  1  0
 17 20  1  0
 18 19  1  0
 19 20  2  0
 21 22  2  0
 22 23  1  0
 24 27  1  0
 25 26  1  0
 25 29  1  0
 26 27  2  0
 29 30  2  0
 29 34  1  0
 30 31  1  0
 31 32  1  0
 31 33  2  0
 33 34  1  0
  3 35  1  0
  3 36  1  0
  3 37  1  0
  4 38  1  0
  4 39  1  0
  4 40  1  0
  5 41  1  0
  7 42  1  0
  7 43  1  0
  8 44  1  0
  8 45  1  0
  9 46  1  0
 11 47  1  0
 12 48  1  1
 13 49  1  0
 13 50  1  0
 13 51  1  0
 14 52  1  0
 14 53  1  0
 14 54  1  0
 15 55  1  0
 15 56  1  0
 19 57  1  0
 21 58  1  0
 28 59  1  0
 32 60  1  0
 32 61  1  0
 32 62  1  0
M  END
>  <filename_input>  (23) 
8EXL_799_docked.sdf

>  <pdb_id>  (23) 
8EXL_799

>  <pose_rank>  (23) 
22

>  <num_atoms_heavy>  (23) 
34

>  <num_torsions>  (23) 
5

>  <pose>  (23) 
[-17.779976467371743, 12.486060619243112, 28.715092589851473, 2.6450144163728804, 1.62021428795919, -0.24786397933415977, 2.9601694368835725, -6.773700784429095, 0.390158300490169, -0.4676911930122098, 3.5401343183182266]

>  <energy>  (23) 
-624.8052073635874

>  <inter_energy>  (23) 
-647.5960278437278

>  <intra_energy>  (23) 
27.392589321281893

>  <rmsd>  (23) 
10.2934

>  <sdf_rank>  (23) 
0

$$$$

     RDKit          3D

 62 66  0  0  0  0  0  0  0  0999 V2000
  -16.5427    7.3428   25.0830 C   0  0  0  0  0  0  0  0  0  0  0  0
  -15.0899    7.6786   24.9292 C   0  0  2  0  0  0  0  0  0  0  0  0
  -14.6849    7.5966   23.4562 C   0  0  0  0  0  0  0  0  0  0  0  0
  -14.2630    6.7006   25.7696 C   0  0  0  0  0  0  0  0  0  0  0  0
  -15.6022    9.7380   26.2897 C   0  0  0  0  0  0  0  0  0  0  0  0
  -15.4953   12.0799   27.3025 C   0  0  0  0  0  0  0  0  0  0  0  0
  -13.9993   15.9965   29.3361 C   0  0  0  0  0  0  0  0  0  0  0  0
  -15.0309   17.0750   29.6374 C   0  0  0  0  0  0  0  0  0  0  0  0
  -17.0558   17.0544   31.1127 C   0  0  0  0  0  0  0  0  0  0  0  0
  -16.2932   14.1837   28.9495 C   0  0  0  0  0  0  0  0  0  0  0  0
  -17.0050   12.9875   28.9227 C   0  0  0  0  0  0  0  0  0  0  0  0
  -21.0046   15.1947   31.0435 C   0  0  1  0  0  0  0  0  0  0  0  0
  -20.7337   15.8828   29.7064 C   0  0  0  0  0  0  0  0  0  0  0  0
  -20.3075   13.8387   31.1575 C   0  0  0  0  0  0  0  0  0  0  0  0
  -17.1190    7.3383   26.3092 N   0  0  0  0  0  0  0  0  0  0  0  0
  -17.1955    7.0910   24.0958 O   0  0  0  0  0  0  0  0  0  0  0  0
  -14.8559    9.0537   25.3893 N   0  0  0  0  0  0  0  0  0  0  0  0
  -15.0307   10.9752   26.4188 C   0  0  0  0  0  0  0  0  0  0  0  0
  -13.8892   11.0157   25.5885 C   0  0  0  0  0  0  0  0  0  0  0  0
  -13.7951    9.8665   24.9763 N   0  0  0  0  0  0  0  0  0  0  0  0
  -14.7658   13.2526   27.3180 C   0  0  0  0  0  0  0  0  0  0  0  0
  -15.1414   14.3030   28.1257 C   0  0  0  0  0  0  0  0  0  0  0  0
  -14.3884   15.4089   28.0929 O   0  0  0  0  0  0  0  0  0  0  0  0
  -16.2409   16.4768   30.1838 N   0  0  0  0  0  0  0  0  0  0  0  0
  -18.0799   16.1955   31.3625 C   0  0  0  0  0  0  0  0  0  0  0  0
  -17.8864   15.1004   30.5905 N   0  0  0  0  0  0  0  0  0  0  0  0
  -16.7967   15.2340   29.8726 C   0  0  0  0  0  0  0  0  0  0  0  0
  -16.6241   11.9420   28.1065 C   0  0  0  0  0  0  0  0  0  0  0  0
  -19.2090   16.4538   32.2791 C   0  0  0  0  0  0  0  0  0  0  0  0
  -19.1759   17.1923   33.3709 N   0  0  0  0  0  0  0  0  0  0  0  0
  -20.3807   17.2336   33.9258 C   0  0  0  0  0  0  0  0  0  0  0  0
  -20.7548   17.9720   35.1915 C   0  0  0  0  0  0  0  0  0  0  0  0
  -21.2013   16.5346   33.1936 N   0  0  0  0  0  0  0  0  0  0  0  0
  -20.4701   16.0292   32.1190 N   0  0  0  0  0  0  0  0  0  0  0  0
  -13.6092    7.3786   23.3833 H   0  0  0  0  0  0  0  0  0  0  0  0
  -15.2555    6.7958   22.9631 H   0  0  0  0  0  0  0  0  0  0  0  0
  -14.8988    8.5563   22.9631 H   0  0  0  0  0  0  0  0  0  0  0  0
  -14.4324    6.9010   26.8379 H   0  0  0  0  0  0  0  0  0  0  0  0
  -14.5673    5.6694   25.5372 H   0  0  0  0  0  0  0  0  0  0  0  0
  -13.1955    6.8290   25.5372 H   0  0  0  0  0  0  0  0  0  0  0  0
  -16.4954    9.3702   26.8159 H   0  0  0  0  0  0  0  0  0  0  0  0
  -12.9967   16.4411   29.2506 H   0  0  0  0  0  0  0  0  0  0  0  0
  -13.9581   15.2457   30.1390 H   0  0  0  0  0  0  0  0  0  0  0  0
  -14.6135   17.7826   30.3689 H   0  0  0  0  0  0  0  0  0  0  0  0
  -15.2813   17.6018   28.7048 H   0  0  0  0  0  0  0  0  0  0  0  0
  -16.9102   18.0407   31.5776 H   0  0  0  0  0  0  0  0  0  0  0  0
  -17.8900   12.8733   29.5658 H   0  0  0  0  0  0  0  0  0  0  0  0
  -22.0925   15.0487   31.1145 H   0  0  0  0  0  0  0  0  0  0  0  0
  -20.3363   16.8923   29.8875 H   0  0  0  0  0  0  0  0  0  0  0  0
  -19.9992   15.2966   29.1346 H   0  0  0  0  0  0  0  0  0  0  0  0
  -21.6707   15.9546   29.1346 H   0  0  0  0  0  0  0  0  0  0  0  0
  -20.1757   13.5822   32.2190 H   0  0  0  0  0  0  0  0  0  0  0  0
  -20.9215   13.0685   30.6677 H   0  0  0  0  0  0  0  0  0  0  0  0
  -19.3239   13.8897   30.6677 H   0  0  0  0  0  0  0  0  0  0  0  0
  -18.1177    7.1067   26.4080 H   0  0  0  0  0  0  0  0  0  0  0  0
  -16.5583    7.5665   27.1426 H   0  0  0  0  0  0  0  0  0  0  0  0
  -13.2004   11.8660   25.4771 H   0  0  0  0  0  0  0  0  0  0  0  0
  -13.8758   13.3486   26.6788 H   0  0  0  0  0  0  0  0  0  0  0  0
  -17.2063   11.0089   28.0910 H   0  0  0  0  0  0  0  0  0  0  0  0
  -20.4532   17.3768   36.0660 H   0  0  0  0  0  0  0  0  0  0  0  0
  -20.2404   18.9441   35.2146 H   0  0  0  0  0  0  0  0  0  0  0  0
  -21.8428   18.1322   35.2146 H   0  0  0  0  0  0  0  0  0  0  0  0
  1  2  1  0
  1 15  1  0
  1 16  2  0
  2  3  1  6
  2  4  1  0
  2 17  1  0
  5 17  1  0
  5 18  2  0
  6 18  1  0
  6 21  1  0
  6 28  2  0
  7  8  1  0
  7 23  1  0
  8 24  1  0
  9 24  1  0
  9 25  2  0
 10 11  2  0
 10 22  1  0
 10 27  1  0
 11 28  1  0
 12 13  1  0
 12 14  1  0
 12 34  1  0
 17 20  1  0
 18 19  1  0
 19 20  2  0
 21 22  2  0
 22 23  1  0
 24 27  1  0
 25 26  1  0
 25 29  1  0
 26 27  2  0
 29 30  2  0
 29 34  1  0
 30 31  1  0
 31 32  1  0
 31 33  2  0
 33 34  1  0
  3 35  1  0
  3 36  1  0
  3 37  1  0
  4 38  1  0
  4 39  1  0
  4 40  1  0
  5 41  1  0
  7 42  1  0
  7 43  1  0
  8 44  1  0
  8 45  1  0
  9 46  1  0
 11 47  1  0
 12 48  1  1
 13 49  1  0
 13 50  1  0
 13 51  1  0
 14 52  1  0
 14 53  1  0
 14 54  1  0
 15 55  1  0
 15 56  1  0
 19 57  1  0
 21 58  1  0
 28 59  1  0
 32 60  1  0
 32 61  1  0
 32 62  1  0
M  END
>  <filename_input>  (24) 
8EXL_799_docked.sdf

>  <pdb_id>  (24) 
8EXL_799

>  <pose_rank>  (24) 
23

>  <num_atoms_heavy>  (24) 
34

>  <num_torsions>  (24) 
5

>  <pose>  (24) 
[-15.49533976181457, 12.079864229116414, 27.302540094692638, 2.4352346572048527, 1.8703521825621847, -0.4639551558003018, -13.060568371376489, -3.1636416074226643, 0.19013179428390048, -5.022244159821138, -0.38713150228900856]

>  <energy>  (24) 
-739.4223886624206

>  <inter_energy>  (24) 
-838.802492349196

>  <intra_energy>  (24) 
89.61975233944962

>  <rmsd>  (24) 
9.85569

>  <sdf_rank>  (24) 
0

$$$$

     RDKit          3D

 62 66  0  0  0  0  0  0  0  0999 V2000
  -15.4817    8.5545   24.5679 C   0  0  0  0  0  0  0  0  0  0  0  0
  -14.8106    8.4753   25.9060 C   0  0  2  0  0  0  0  0  0  0  0  0
  -13.4864    9.2409   25.8756 C   0  0  0  0  0  0  0  0  0  0  0  0
  -14.5726    7.0029   26.2553 C   0  0  0  0  0  0  0  0  0  0  0  0
  -15.7176   10.4124   27.2400 C   0  0  0  0  0  0  0  0  0  0  0  0
  -17.0559   11.8122   28.9046 C   0  0  0  0  0  0  0  0  0  0  0  0
  -15.3009   15.8413   30.4540 C   0  0  0  0  0  0  0  0  0  0  0  0
  -16.2337   17.0433   30.5104 C   0  0  0  0  0  0  0  0  0  0  0  0
  -18.3417   17.4358   31.8065 C   0  0  0  0  0  0  0  0  0  0  0  0
  -17.7389   14.2087   30.1559 C   0  0  0  0  0  0  0  0  0  0  0  0
  -18.5665   13.0930   30.2482 C   0  0  0  0  0  0  0  0  0  0  0  0
  -19.4132   17.8514   34.9922 C   0  0  1  0  0  0  0  0  0  0  0  0
  -18.9844   19.3178   34.9706 C   0  0  0  0  0  0  0  0  0  0  0  0
  -19.8342   17.3835   36.3856 C   0  0  0  0  0  0  0  0  0  0  0  0
  -15.2119    9.5810   23.7257 N   0  0  0  0  0  0  0  0  0  0  0  0
  -16.2552    7.6817   24.2456 O   0  0  0  0  0  0  0  0  0  0  0  0
  -15.6717    9.0964   26.9209 N   0  0  0  0  0  0  0  0  0  0  0  0
  -16.6507   10.5468   28.2325 C   0  0  0  0  0  0  0  0  0  0  0  0
  -17.1981    9.2709   28.4903 C   0  0  0  0  0  0  0  0  0  0  0  0
  -16.6059    8.4121   27.7055 N   0  0  0  0  0  0  0  0  0  0  0  0
  -16.2124   12.9015   28.8059 C   0  0  0  0  0  0  0  0  0  0  0  0
  -16.5298   14.0936   29.4180 C   0  0  0  0  0  0  0  0  0  0  0  0
  -15.6666   15.1075   29.2835 O   0  0  0  0  0  0  0  0  0  0  0  0
  -17.5318   16.6498   31.0404 N   0  0  0  0  0  0  0  0  0  0  0  0
  -19.4627   16.7232   32.0971 C   0  0  0  0  0  0  0  0  0  0  0  0
  -19.3328   15.5092   31.5121 N   0  0  0  0  0  0  0  0  0  0  0  0
  -18.1908   15.4303   30.8716 C   0  0  0  0  0  0  0  0  0  0  0  0
  -18.2427   11.9039   29.6274 C   0  0  0  0  0  0  0  0  0  0  0  0
  -20.6165   17.2219   32.8728 C   0  0  0  0  0  0  0  0  0  0  0  0
  -21.8754   17.2327   32.4811 N   0  0  0  0  0  0  0  0  0  0  0  0
  -22.6456   17.7165   33.4474 C   0  0  0  0  0  0  0  0  0  0  0  0
  -24.1463   17.8945   33.3869 C   0  0  0  0  0  0  0  0  0  0  0  0
  -21.8952   18.0100   34.4715 N   0  0  0  0  0  0  0  0  0  0  0  0
  -20.5819   17.6901   34.1281 N   0  0  0  0  0  0  0  0  0  0  0  0
  -13.1511    9.4347   26.9051 H   0  0  0  0  0  0  0  0  0  0  0  0
  -12.7284    8.6417   25.3498 H   0  0  0  0  0  0  0  0  0  0  0  0
  -13.6275   10.1968   25.3498 H   0  0  0  0  0  0  0  0  0  0  0  0
  -14.5534    6.8839   27.3486 H   0  0  0  0  0  0  0  0  0  0  0  0
  -15.3834    6.3905   25.8340 H   0  0  0  0  0  0  0  0  0  0  0  0
  -13.6102    6.6771   25.8340 H   0  0  0  0  0  0  0  0  0  0  0  0
  -15.1199   11.2179   26.7884 H   0  0  0  0  0  0  0  0  0  0  0  0
  -14.2546   16.1736   30.3844 H   0  0  0  0  0  0  0  0  0  0  0  0
  -15.3894   15.2224   31.3591 H   0  0  0  0  0  0  0  0  0  0  0  0
  -15.7943   17.8137   31.1611 H   0  0  0  0  0  0  0  0  0  0  0  0
  -16.3675   17.4411   29.4936 H   0  0  0  0  0  0  0  0  0  0  0  0
  -18.1261   18.4643   32.1316 H   0  0  0  0  0  0  0  0  0  0  0  0
  -19.4985   13.1608   30.8285 H   0  0  0  0  0  0  0  0  0  0  0  0
  -18.5482   17.2594   34.6584 H   0  0  0  0  0  0  0  0  0  0  0  0
  -18.8774   19.6837   36.0025 H   0  0  0  0  0  0  0  0  0  0  0  0
  -18.0215   19.4106   34.4470 H   0  0  0  0  0  0  0  0  0  0  0  0
  -19.7456   19.9147   34.4470 H   0  0  0  0  0  0  0  0  0  0  0  0
  -19.3029   17.9739   37.1467 H   0  0  0  0  0  0  0  0  0  0  0  0
  -20.9189   17.5208   36.5063 H   0  0  0  0  0  0  0  0  0  0  0  0
  -19.5836   16.3193   36.5063 H   0  0  0  0  0  0  0  0  0  0  0  0
  -15.6764    9.6296   22.8076 H   0  0  0  0  0  0  0  0  0  0  0  0
  -14.5422   10.3127   24.0034 H   0  0  0  0  0  0  0  0  0  0  0  0
  -17.9853    9.0411   29.2235 H   0  0  0  0  0  0  0  0  0  0  0  0
  -15.2775   12.8159   28.2326 H   0  0  0  0  0  0  0  0  0  0  0  0
  -18.9155   11.0368   29.7027 H   0  0  0  0  0  0  0  0  0  0  0  0
  -24.5513   17.9426   34.4085 H   0  0  0  0  0  0  0  0  0  0  0  0
  -24.3837   18.8271   32.8541 H   0  0  0  0  0  0  0  0  0  0  0  0
  -24.5954   17.0433   32.8541 H   0  0  0  0  0  0  0  0  0  0  0  0
  1  2  1  0
  1 15  1  0
  1 16  2  0
  2  3  1  6
  2  4  1  0
  2 17  1  0
  5 17  1  0
  5 18  2  0
  6 18  1  0
  6 21  1  0
  6 28  2  0
  7  8  1  0
  7 23  1  0
  8 24  1  0
  9 24  1  0
  9 25  2  0
 10 11  2  0
 10 22  1  0
 10 27  1  0
 11 28  1  0
 12 13  1  0
 12 14  1  0
 12 34  1  0
 17 20  1  0
 18 19  1  0
 19 20  2  0
 21 22  2  0
 22 23  1  0
 24 27  1  0
 25 26  1  0
 25 29  1  0
 26 27  2  0
 29 30  2  0
 29 34  1  0
 30 31  1  0
 31 32  1  0
 31 33  2  0
 33 34  1  0
  3 35  1  0
  3 36  1  0
  3 37  1  0
  4 38  1  0
  4 39  1  0
  4 40  1  0
  5 41  1  0
  7 42  1  0
  7 43  1  0
  8 44  1  0
  8 45  1  0
  9 46  1  0
 11 47  1  0
 12 48  1  6
 13 49  1  0
 13 50  1  0
 13 51  1  0
 14 52  1  0
 14 53  1  0
 14 54  1  0
 15 55  1  0
 15 56  1  0
 19 57  1  0
 21 58  1  0
 28 59  1  0
 32 60  1  0
 32 61  1  0
 32 62  1  0
M  END
>  <filename_input>  (25) 
8EXL_799_docked.sdf

>  <pdb_id>  (25) 
8EXL_799

>  <pose_rank>  (25) 
24

>  <num_atoms_heavy>  (25) 
34

>  <num_torsions>  (25) 
5

>  <pose>  (25) 
[-17.055896236374384, 11.812241855589336, 28.904575195393697, 2.4172770118926077, 1.6309963315161906, -0.49458080183296177, -4.058840513654622, -0.41166185250107906, 3.0365155912846915, -0.6837881165439634, 2.339299308921643]

>  <energy>  (25) 
-707.7348118712416

>  <inter_energy>  (25) 
-725.8291611310746

>  <intra_energy>  (25) 
5.329261718069374

>  <rmsd>  (25) 
10.3016

>  <sdf_rank>  (25) 
0

$$$$

     RDKit          3D

 62 66  0  0  0  0  0  0  0  0999 V2000
  -22.2310   18.0260   33.0920 C   0  0  0  0  0  0  0  0  0  0  0  0
  -21.1380   17.9820   34.1170 C   0  0  2  0  0  0  0  0  0  0  0  0
  -21.4250   16.8850   35.1440 C   0  0  0  0  0  0  0  0  0  0  0  0
  -21.0450   19.3490   34.8020 C   0  0  0  0  0  0  0  0  0  0  0  0
  -19.6510   16.6840   32.5490 C   0  0  0  0  0  0  0  0  0  0  0  0
  -17.6240   15.8670   31.2280 C   0  0  0  0  0  0  0  0  0  0  0  0
  -14.1230   15.9060   28.1530 C   0  0  0  0  0  0  0  0  0  0  0  0
  -13.4250   14.5850   27.8600 C   0  0  0  0  0  0  0  0  0  0  0  0
  -14.2880   12.4440   26.8860 C   0  0  0  0  0  0  0  0  0  0  0  0
  -16.2540   14.2830   29.3870 C   0  0  0  0  0  0  0  0  0  0  0  0
  -17.5340   13.9390   29.8130 C   0  0  0  0  0  0  0  0  0  0  0  0
  -17.7900    9.7450   27.5070 C   0  0  1  0  0  0  0  0  0  0  0  0
  -19.1010    9.6500   26.7280 C   0  0  0  0  0  0  0  0  0  0  0  0
  -17.6580    8.6530   28.5690 C   0  0  0  0  0  0  0  0  0  0  0  0
  -22.0090   18.5830   31.8770 N   0  0  0  0  0  0  0  0  0  0  0  0
  -23.3080   17.5440   33.3600 O   0  0  0  0  0  0  0  0  0  0  0  0
  -19.8640   17.6660   33.4580 N   0  0  0  0  0  0  0  0  0  0  0  0
  -18.3280   16.7450   32.2030 C   0  0  0  0  0  0  0  0  0  0  0  0
  -17.7430   17.8190   32.9090 C   0  0  0  0  0  0  0  0  0  0  0  0
  -18.6660   18.3600   33.6570 N   0  0  0  0  0  0  0  0  0  0  0  0
  -16.3590   16.2360   30.8140 C   0  0  0  0  0  0  0  0  0  0  0  0
  -15.6660   15.4690   29.9040 C   0  0  0  0  0  0  0  0  0  0  0  0
  -14.4460   15.8860   29.5450 O   0  0  0  0  0  0  0  0  0  0  0  0
  -14.4050   13.5170   27.7200 N   0  0  0  0  0  0  0  0  0  0  0  0
  -15.3940   11.6690   27.0440 C   0  0  0  0  0  0  0  0  0  0  0  0
  -16.1800   12.2700   27.9680 N   0  0  0  0  0  0  0  0  0  0  0  0
  -15.6200   13.3770   28.3940 C   0  0  0  0  0  0  0  0  0  0  0  0
  -18.2190   14.7110   30.7290 C   0  0  0  0  0  0  0  0  0  0  0  0
  -15.6460   10.3870   26.3550 C   0  0  0  0  0  0  0  0  0  0  0  0
  -14.8700    9.8190   25.4530 N   0  0  0  0  0  0  0  0  0  0  0  0
  -15.3890    8.6570   25.0770 C   0  0  0  0  0  0  0  0  0  0  0  0
  -14.8020    7.7060   24.0580 C   0  0  0  0  0  0  0  0  0  0  0  0
  -16.4940    8.4600   25.7390 N   0  0  0  0  0  0  0  0  0  0  0  0
  -16.6760    9.5590   26.5780 N   0  0  0  0  0  0  0  0  0  0  0  0
  -21.3176   17.2956   36.1588 H   0  0  0  0  0  0  0  0  0  0  0  0
  -22.4508   16.5126   35.0058 H   0  0  0  0  0  0  0  0  0  0  0  0
  -20.7130   16.0580   35.0058 H   0  0  0  0  0  0  0  0  0  0  0  0
  -21.0542   19.2135   35.8936 H   0  0  0  0  0  0  0  0  0  0  0  0
  -20.1109   19.8466   34.5022 H   0  0  0  0  0  0  0  0  0  0  0  0
  -21.9031   19.9685   34.5022 H   0  0  0  0  0  0  0  0  0  0  0  0
  -20.3976   15.9743   32.1633 H   0  0  0  0  0  0  0  0  0  0  0  0
  -13.4530   16.7492   27.9291 H   0  0  0  0  0  0  0  0  0  0  0  0
  -15.0240   16.0292   27.5341 H   0  0  0  0  0  0  0  0  0  0  0  0
  -12.8518   14.6766   26.9256 H   0  0  0  0  0  0  0  0  0  0  0  0
  -12.7492   14.3442   28.6939 H   0  0  0  0  0  0  0  0  0  0  0  0
  -13.4475   12.2415   26.2059 H   0  0  0  0  0  0  0  0  0  0  0  0
  -18.0095   13.0323   29.4108 H   0  0  0  0  0  0  0  0  0  0  0  0
  -17.7792   10.7294   27.9978 H   0  0  0  0  0  0  0  0  0  0  0  0
  -19.9430    9.5890   27.4332 H   0  0  0  0  0  0  0  0  0  0  0  0
  -19.2168   10.5421   26.0950 H   0  0  0  0  0  0  0  0  0  0  0  0
  -19.0870    8.7505   26.0950 H   0  0  0  0  0  0  0  0  0  0  0  0
  -17.7128    9.1063   29.5698 H   0  0  0  0  0  0  0  0  0  0  0  0
  -18.4748    7.9258   28.4506 H   0  0  0  0  0  0  0  0  0  0  0  0
  -16.6915    8.1413   28.4506 H   0  0  0  0  0  0  0  0  0  0  0  0
  -22.7642   18.6101   31.1771 H   0  0  0  0  0  0  0  0  0  0  0  0
  -21.0850   18.9793   31.6532 H   0  0  0  0  0  0  0  0  0  0  0  0
  -16.6940   18.1428   32.8407 H   0  0  0  0  0  0  0  0  0  0  0  0
  -15.9004   17.1518   31.2152 H   0  0  0  0  0  0  0  0  0  0  0  0
  -19.2252   14.4162   31.0618 H   0  0  0  0  0  0  0  0  0  0  0  0
  -14.2927    6.8808   24.5773 H   0  0  0  0  0  0  0  0  0  0  0  0
  -15.6075    7.3010   23.4278 H   0  0  0  0  0  0  0  0  0  0  0  0
  -14.0789    8.2445   23.4278 H   0  0  0  0  0  0  0  0  0  0  0  0
  1  2  1  0
  1 15  1  0
  1 16  2  0
  2  3  1  1
  2  4  1  0
  2 17  1  0
  5 17  1  0
  5 18  2  0
  6 18  1  0
  6 21  1  0
  6 28  2  0
  7  8  1  0
  7 23  1  0
  8 24  1  0
  9 24  1  0
  9 25  2  0
 10 11  2  0
 10 22  1  0
 10 27  1  0
 11 28  1  0
 12 13  1  0
 12 14  1  0
 12 34  1  0
 17 20  1  0
 18 19  1  0
 19 20  2  0
 21 22  2  0
 22 23  1  0
 24 27  1  0
 25 26  1  0
 25 29  1  0
 26 27  2  0
 29 30  2  0
 29 34  1  0
 30 31  1  0
 31 32  1  0
 31 33  2  0
 33 34  1  0
  3 35  1  0
  3 36  1  0
  3 37  1  0
  4 38  1  0
  4 39  1  0
  4 40  1  0
  5 41  1  0
  7 42  1  0
  7 43  1  0
  8 44  1  0
  8 45  1  0
  9 46  1  0
 11 47  1  0
 12 48  1  1
 13 49  1  0
 13 50  1  0
 13 51  1  0
 14 52  1  0
 14 53  1  0
 14 54  1  0
 15 55  1  0
 15 56  1  0
 19 57  1  0
 21 58  1  0
 28 59  1  0
 32 60  1  0
 32 61  1  0
 32 62  1  0
M  END
>  <filename_input>  (26) 
8EXL_799_docked.sdf

>  <pdb_id>  (26) 
8EXL_799

>  <pose_rank>  (26) 
25

>  <num_atoms_heavy>  (26) 
34

>  <num_torsions>  (26) 
5

>  <pose>  (26) 
[-17.624, 15.867, 31.228, 1e-06, 1e-06, 1e-06, 0.0, 0.0, 0.0, 0.0, 0.0]

>  <energy>  (26) 
-1400.1844442850133

>  <inter_energy>  (26) 
-1433.8767822435284

>  <intra_energy>  (26) 
24.22524257728042

>  <rmsd>  (26) 
0.0

>  <sdf_rank>  (26) 
0

$$$$
