
     RDKit          3D

 49 51  0  0  0  0  0  0  0  0999 V2000
   13.1484   12.7026   15.7323 C   0  0  0  0  0  0  0  0  0  0  0  0
   14.5283    9.3131   12.4876 N   0  0  0  0  0  0  0  0  0  0  0  0
   15.9474    8.9429   12.4556 C   0  0  0  0  0  0  0  0  0  0  0  0
   15.3218    4.3214   13.4233 C   0  0  0  0  0  0  0  0  0  0  0  0
   15.2547    3.7898   15.7920 C   0  0  0  0  0  0  0  0  0  0  0  0
   15.0319    5.1171   16.0969 C   0  0  0  0  0  0  0  0  0  0  0  0
   13.3301   13.0714   20.2025 C   0  0  0  0  0  0  0  0  0  0  0  0
   13.7336   12.8559   18.9077 C   0  0  0  0  0  0  0  0  0  0  0  0
   12.9221   12.0377   18.1257 C   0  0  0  0  0  0  0  0  0  0  0  0
   13.1578   11.7084   16.6673 C   0  0  0  0  0  0  0  0  0  0  0  0
   13.5162   10.3887   16.3434 C   0  0  0  0  0  0  0  0  0  0  0  0
   13.8065   10.0696   15.0075 C   0  0  0  0  0  0  0  0  0  0  0  0
   13.7870   11.0799   14.0459 C   0  0  0  0  0  0  0  0  0  0  0  0
   13.4531   12.3761   14.3682 C   0  0  0  0  0  0  0  0  0  0  0  0
   14.1760   10.7153   12.6296 C   0  0  2  0  0  0  0  0  0  0  0  0
   16.2893    7.4143   12.2756 C   0  0  0  0  0  0  0  0  0  0  0  0
   15.0996    5.6497   13.7262 C   0  0  0  0  0  0  0  0  0  0  0  0
   15.3836    3.4109   14.4553 C   0  0  0  0  0  0  0  0  0  0  0  0
   14.9704    6.0581   15.0837 C   0  0  0  0  0  0  0  0  0  0  0  0
   13.2438   11.2026   11.5583 C   0  0  0  0  0  0  0  0  0  0  0  0
   11.7229   11.4986   18.6284 C   0  0  0  0  0  0  0  0  0  0  0  0
   11.3444   11.7317   19.9355 C   0  0  0  0  0  0  0  0  0  0  0  0
   12.1516   12.5313   20.7128 C   0  0  0  0  0  0  0  0  0  0  0  0
   14.1022   13.8390   21.0088 F   0  0  0  0  0  0  0  0  0  0  0  0
   15.6173    2.1234   14.1687 F   0  0  0  0  0  0  0  0  0  0  0  0
   14.8972    5.4595   17.4113 F   0  0  0  0  0  0  0  0  0  0  0  0
   10.1757   11.2241   20.4862 F   0  0  0  0  0  0  0  0  0  0  0  0
   11.7572   12.7673   22.0185 F   0  0  0  0  0  0  0  0  0  0  0  0
   15.0387    6.6207   12.6109 N   0  0  0  0  0  0  0  0  0  0  0  0
   13.9112   11.8643   10.4591 N   0  0  0  0  0  0  0  0  0  0  0  0
   16.7875    9.7465   12.5181 O   0  0  0  0  0  0  0  0  0  0  0  0
   13.0850   12.3434    9.4368 O   0  0  0  0  0  0  0  0  0  0  0  0
   12.0583   11.0146   11.5986 O   0  0  0  0  0  0  0  0  0  0  0  0
   12.9110   13.7375   16.0196 H   0  0  0  0  0  0  0  0  0  0  0  0
   13.7960    8.5930   12.4109 H   0  0  0  0  0  0  0  0  0  0  0  0
   15.4469    3.9968   12.3797 H   0  0  0  0  0  0  0  0  0  0  0  0
   15.3298    3.0396   16.5930 H   0  0  0  0  0  0  0  0  0  0  0  0
   14.6534   13.3076   18.5077 H   0  0  0  0  0  0  0  0  0  0  0  0
   13.5685    9.6169   17.1255 H   0  0  0  0  0  0  0  0  0  0  0  0
   14.0467    9.0347   14.7223 H   0  0  0  0  0  0  0  0  0  0  0  0
   13.4203   13.1524   13.5896 H   0  0  0  0  0  0  0  0  0  0  0  0
   15.0946   11.2930   12.4494 H   0  0  0  0  0  0  0  0  0  0  0  0
   16.5909    7.2174   11.2363 H   0  0  0  0  0  0  0  0  0  0  0  0
   17.1194    7.1240   12.9364 H   0  0  0  0  0  0  0  0  0  0  0  0
   14.8219    7.1205   15.3272 H   0  0  0  0  0  0  0  0  0  0  0  0
   11.0829   10.8873   17.9753 H   0  0  0  0  0  0  0  0  0  0  0  0
   14.1693    6.7550   12.0752 H   0  0  0  0  0  0  0  0  0  0  0  0
   14.9347   11.9762   10.4306 H   0  0  0  0  0  0  0  0  0  0  0  0
   12.3001   12.7986    9.8329 H   0  0  0  0  0  0  0  0  0  0  0  0
  1 10  2  0
  1 14  1  0
  2  3  1  0
 15  2  1  0
  3 16  1  0
  3 31  2  0
  4 17  2  0
  4 18  1  0
  5  6  1  0
  5 18  2  0
  6 19  2  0
  6 26  1  0
  7  8  2  0
  7 23  1  0
  7 24  1  0
  8  9  1  0
  9 10  1  0
  9 21  2  0
 10 11  1  0
 11 12  2  0
 12 13  1  0
 13 14  2  0
 13 15  1  0
 15 20  1  0
 16 29  1  0
 17 19  1  0
 17 29  1  0
 18 25  1  0
 20 30  1  0
 20 33  2  0
 21 22  1  0
 22 23  2  0
 22 27  1  0
 23 28  1  0
 30 32  1  0
  1 34  1  0
  2 35  1  0
  4 36  1  0
  5 37  1  0
  8 38  1  0
 11 39  1  0
 12 40  1  0
 14 41  1  0
 15 42  1  6
 16 43  1  0
 16 44  1  0
 19 45  1  0
 21 46  1  0
 29 47  1  0
 30 48  1  0
 32 49  1  0
M  END
>  <filename_input>  (1) 
8EYE_X4I_docked.sdf

>  <pdb_id>  (1) 
8EYE_X4I

>  <pose_rank>  (1) 
0

>  <num_atoms_heavy>  (1) 
33

>  <num_torsions>  (1) 
7

>  <pose>  (1) 
[14.176002104432323, 10.7152814651867, 12.62960143436968, 0.08222041877784474, -1.6639855833368924, 5.857841712025251, 6.558537032187471, 3.0295315396998115, 0.5270963805355732, 0.006743367427857652, -6.545832760304557, 5.780513256968405, 1.0072617339241314]

>  <energy>  (1) 
-1155.8460246764646

>  <inter_energy>  (1) 
-1154.7368294199048

>  <intra_energy>  (1) 
3.777629804354377

>  <rmsd>  (1) 
0.953868

>  <sdf_rank>  (1) 
0

$$$$

     RDKit          3D

 49 51  0  0  0  0  0  0  0  0999 V2000
   13.4853   12.5041   15.5245 C   0  0  0  0  0  0  0  0  0  0  0  0
   15.2529    9.2751   12.3562 N   0  0  0  0  0  0  0  0  0  0  0  0
   16.7154    9.1615   12.3522 C   0  0  0  0  0  0  0  0  0  0  0  0
   14.4781    5.9798   13.3313 C   0  0  0  0  0  0  0  0  0  0  0  0
   14.6966    3.8752   14.5232 C   0  0  0  0  0  0  0  0  0  0  0  0
   15.9295    3.6591   13.9422 C   0  0  0  0  0  0  0  0  0  0  0  0
   11.3711   11.5592   19.6829 C   0  0  0  0  0  0  0  0  0  0  0  0
   11.5556   11.2610   18.3553 C   0  0  0  0  0  0  0  0  0  0  0  0
   12.7341   11.7149   17.7682 C   0  0  0  0  0  0  0  0  0  0  0  0
   13.1539   11.4586   16.3369 C   0  0  0  0  0  0  0  0  0  0  0  0
   13.3186   10.1231   15.9317 C   0  0  0  0  0  0  0  0  0  0  0  0
   13.7722    9.8566   14.6301 C   0  0  0  0  0  0  0  0  0  0  0  0
   14.1012   10.9219   13.7917 C   0  0  0  0  0  0  0  0  0  0  0  0
   13.9563   12.2298   14.1967 C   0  0  0  0  0  0  0  0  0  0  0  0
   14.6559   10.5979   12.4216 C   0  0  2  0  0  0  0  0  0  0  0  0
   17.3251    7.7107   12.2555 C   0  0  0  0  0  0  0  0  0  0  0  0
   15.7108    5.7653   12.7485 C   0  0  0  0  0  0  0  0  0  0  0  0
   13.9950    5.0417   14.2170 C   0  0  0  0  0  0  0  0  0  0  0  0
   16.4408    4.5793   13.0433 C   0  0  0  0  0  0  0  0  0  0  0  0
   13.7404   10.8915   11.2684 C   0  0  0  0  0  0  0  0  0  0  0  0
   13.7073   12.4045   18.5158 C   0  0  0  0  0  0  0  0  0  0  0  0
   13.4925   12.6913   19.8491 C   0  0  0  0  0  0  0  0  0  0  0  0
   12.3227   12.2528   20.4276 C   0  0  0  0  0  0  0  0  0  0  0  0
   10.2269   11.1615   20.2896 F   0  0  0  0  0  0  0  0  0  0  0  0
   12.7911    5.2356   14.7716 F   0  0  0  0  0  0  0  0  0  0  0  0
   16.6007    2.5162   14.2679 F   0  0  0  0  0  0  0  0  0  0  0  0
   14.4138   13.3702   20.6345 F   0  0  0  0  0  0  0  0  0  0  0  0
   12.1224   12.5362   21.7675 F   0  0  0  0  0  0  0  0  0  0  0  0
   16.2195    6.7769   11.7954 N   0  0  0  0  0  0  0  0  0  0  0  0
   13.8855   12.2267   10.7320 N   0  0  0  0  0  0  0  0  0  0  0  0
   17.3990   10.1036   12.3769 O   0  0  0  0  0  0  0  0  0  0  0  0
   13.0489   12.5526    9.6591 O   0  0  0  0  0  0  0  0  0  0  0  0
   12.9921   10.0705   10.8120 O   0  0  0  0  0  0  0  0  0  0  0  0
   13.3928   13.5403   15.8817 H   0  0  0  0  0  0  0  0  0  0  0  0
   14.6608    8.4334   12.3135 H   0  0  0  0  0  0  0  0  0  0  0  0
   13.8937    6.8809   13.0934 H   0  0  0  0  0  0  0  0  0  0  0  0
   14.2721    3.1368   15.2193 H   0  0  0  0  0  0  0  0  0  0  0  0
   10.8086   10.6913   17.7831 H   0  0  0  0  0  0  0  0  0  0  0  0
   13.0953    9.2983   16.6244 H   0  0  0  0  0  0  0  0  0  0  0  0
   13.8671    8.8197   14.2754 H   0  0  0  0  0  0  0  0  0  0  0  0
   14.1987   13.0549   13.5107 H   0  0  0  0  0  0  0  0  0  0  0  0
   15.4733   11.3218   12.2880 H   0  0  0  0  0  0  0  0  0  0  0  0
   18.1519    7.6990   11.5300 H   0  0  0  0  0  0  0  0  0  0  0  0
   17.7186    7.3914   13.2318 H   0  0  0  0  0  0  0  0  0  0  0  0
   17.4101    4.3943   12.5573 H   0  0  0  0  0  0  0  0  0  0  0  0
   14.6456   12.7171   18.0343 H   0  0  0  0  0  0  0  0  0  0  0  0
   15.8329    6.8459   10.8432 H   0  0  0  0  0  0  0  0  0  0  0  0
   14.5649   12.8982   11.1172 H   0  0  0  0  0  0  0  0  0  0  0  0
   12.1846   12.8894   10.0050 H   0  0  0  0  0  0  0  0  0  0  0  0
  1 10  2  0
  1 14  1  0
  2  3  1  0
 15  2  1  0
  3 16  1  0
  3 31  2  0
  4 17  2  0
  4 18  1  0
  5  6  1  0
  5 18  2  0
  6 19  2  0
  6 26  1  0
  7  8  2  0
  7 23  1  0
  7 24  1  0
  8  9  1  0
  9 10  1  0
  9 21  2  0
 10 11  1  0
 11 12  2  0
 12 13  1  0
 13 14  2  0
 13 15  1  0
 15 20  1  0
 16 29  1  0
 17 19  1  0
 17 29  1  0
 18 25  1  0
 20 30  1  0
 20 33  2  0
 21 22  1  0
 22 23  2  0
 22 27  1  0
 23 28  1  0
 30 32  1  0
  1 34  1  0
  2 35  1  0
  4 36  1  0
  5 37  1  0
  8 38  1  0
 11 39  1  0
 12 40  1  0
 14 41  1  0
 15 42  1  6
 16 43  1  0
 16 44  1  0
 19 45  1  0
 21 46  1  0
 29 47  1  0
 30 48  1  0
 32 49  1  0
M  END
>  <filename_input>  (2) 
8EYE_X4I_docked.sdf

>  <pdb_id>  (2) 
8EYE_X4I

>  <pose_rank>  (2) 
1

>  <num_atoms_heavy>  (2) 
33

>  <num_torsions>  (2) 
7

>  <pose>  (2) 
[14.655928776103593, 10.597858143246771, 12.421566263735805, -0.029615968631522063, -0.025863309767374904, -0.013225214261310837, -0.11871468499325664, 0.0347130574257013, 18.65576094846644, 25.070332994215686, -5.963217229930553, -0.36694164178340133, -8.02813163917954]

>  <energy>  (2) 
-1239.9568218128434

>  <inter_energy>  (2) 
-1232.501000752353

>  <intra_energy>  (2) 
3.176720418933117

>  <rmsd>  (2) 
1.14954

>  <sdf_rank>  (2) 
0

$$$$

     RDKit          3D

 49 51  0  0  0  0  0  0  0  0999 V2000
   13.1769   12.3932   15.3101 C   0  0  0  0  0  0  0  0  0  0  0  0
   15.1460    9.1299   12.2436 N   0  0  0  0  0  0  0  0  0  0  0  0
   14.2418    8.0361   12.6149 C   0  0  0  0  0  0  0  0  0  0  0  0
   17.5301    4.5975   12.1339 C   0  0  0  0  0  0  0  0  0  0  0  0
   18.4083    3.0929   13.8260 C   0  0  0  0  0  0  0  0  0  0  0  0
   17.9053    3.9016   14.8247 C   0  0  0  0  0  0  0  0  0  0  0  0
   11.7696   11.4979   19.7611 C   0  0  0  0  0  0  0  0  0  0  0  0
   11.9367   11.0807   18.4636 C   0  0  0  0  0  0  0  0  0  0  0  0
   12.8883   11.7575   17.7046 C   0  0  0  0  0  0  0  0  0  0  0  0
   13.2605   11.4310   16.2744 C   0  0  0  0  0  0  0  0  0  0  0  0
   13.8150   10.1662   16.0142 C   0  0  0  0  0  0  0  0  0  0  0  0
   14.2320    9.8601   14.7091 C   0  0  0  0  0  0  0  0  0  0  0  0
   14.1379   10.8363   13.7171 C   0  0  0  0  0  0  0  0  0  0  0  0
   13.6109   12.0812   13.9780 C   0  0  0  0  0  0  0  0  0  0  0  0
   14.6638   10.4969   12.3393 C   0  0  2  0  0  0  0  0  0  0  0  0
   14.8098    6.5683   12.5211 C   0  0  0  0  0  0  0  0  0  0  0  0
   17.0267    5.4080   13.1314 C   0  0  0  0  0  0  0  0  0  0  0  0
   18.2006    3.4488   12.4930 C   0  0  0  0  0  0  0  0  0  0  0  0
   17.2319    5.0660   14.4978 C   0  0  0  0  0  0  0  0  0  0  0  0
   13.7772   10.8932   11.1943 C   0  0  0  0  0  0  0  0  0  0  0  0
   13.6714   12.7872   18.2595 C   0  0  0  0  0  0  0  0  0  0  0  0
   13.4790   13.1859   19.5672 C   0  0  0  0  0  0  0  0  0  0  0  0
   12.5307   12.5250   20.3150 C   0  0  0  0  0  0  0  0  0  0  0  0
   10.8359   10.8867   20.5294 F   0  0  0  0  0  0  0  0  0  0  0  0
   18.7073    2.6678   11.5297 F   0  0  0  0  0  0  0  0  0  0  0  0
   18.1115    3.5246   16.1203 F   0  0  0  0  0  0  0  0  0  0  0  0
   14.2185   14.1964   20.1661 F   0  0  0  0  0  0  0  0  0  0  0  0
   12.3536   12.9255   21.6280 F   0  0  0  0  0  0  0  0  0  0  0  0
   16.3114    6.6418   12.7357 N   0  0  0  0  0  0  0  0  0  0  0  0
   14.0847   12.1929   10.6395 N   0  0  0  0  0  0  0  0  0  0  0  0
   13.1637    8.2430   13.0027 O   0  0  0  0  0  0  0  0  0  0  0  0
   13.2817   12.6119    9.5732 O   0  0  0  0  0  0  0  0  0  0  0  0
   12.9236   10.1701   10.7575 O   0  0  0  0  0  0  0  0  0  0  0  0
   12.7831   13.3919   15.5499 H   0  0  0  0  0  0  0  0  0  0  0  0
   16.1042    8.9325   11.9214 H   0  0  0  0  0  0  0  0  0  0  0  0
   17.3987    4.8632   11.0746 H   0  0  0  0  0  0  0  0  0  0  0  0
   18.9662    2.1789   14.0778 H   0  0  0  0  0  0  0  0  0  0  0  0
   11.3474   10.2521   18.0439 H   0  0  0  0  0  0  0  0  0  0  0  0
   13.9208    9.4266   16.8216 H   0  0  0  0  0  0  0  0  0  0  0  0
   14.6284    8.8619   14.4715 H   0  0  0  0  0  0  0  0  0  0  0  0
   13.5236   12.8280   13.1750 H   0  0  0  0  0  0  0  0  0  0  0  0
   15.5399   11.1514   12.2209 H   0  0  0  0  0  0  0  0  0  0  0  0
   14.3505    5.9382   13.2970 H   0  0  0  0  0  0  0  0  0  0  0  0
   14.5813    6.1279   11.5394 H   0  0  0  0  0  0  0  0  0  0  0  0
   16.8558    5.7263   15.2932 H   0  0  0  0  0  0  0  0  0  0  0  0
   14.4422   13.2777   17.6468 H   0  0  0  0  0  0  0  0  0  0  0  0
   16.8196    7.5286   12.6090 H   0  0  0  0  0  0  0  0  0  0  0  0
   14.8499   12.7758   11.0077 H   0  0  0  0  0  0  0  0  0  0  0  0
   12.4617   13.0399    9.9260 H   0  0  0  0  0  0  0  0  0  0  0  0
  1 10  2  0
  1 14  1  0
  2  3  1  0
 15  2  1  0
  3 16  1  0
  3 31  2  0
  4 17  2  0
  4 18  1  0
  5  6  1  0
  5 18  2  0
  6 19  2  0
  6 26  1  0
  7  8  2  0
  7 23  1  0
  7 24  1  0
  8  9  1  0
  9 10  1  0
  9 21  2  0
 10 11  1  0
 11 12  2  0
 12 13  1  0
 13 14  2  0
 13 15  1  0
 15 20  1  0
 16 29  1  0
 17 19  1  0
 17 29  1  0
 18 25  1  0
 20 30  1  0
 20 33  2  0
 21 22  1  0
 22 23  2  0
 22 27  1  0
 23 28  1  0
 30 32  1  0
  1 34  1  0
  2 35  1  0
  4 36  1  0
  5 37  1  0
  8 38  1  0
 11 39  1  0
 12 40  1  0
 14 41  1  0
 15 42  1  6
 16 43  1  0
 16 44  1  0
 19 45  1  0
 21 46  1  0
 29 47  1  0
 30 48  1  0
 32 49  1  0
M  END
>  <filename_input>  (3) 
8EYE_X4I_docked.sdf

>  <pdb_id>  (3) 
8EYE_X4I

>  <pose_rank>  (3) 
2

>  <num_atoms_heavy>  (3) 
33

>  <num_torsions>  (3) 
7

>  <pose>  (3) 
[14.663812905459439, 10.496907365284354, 12.33933145311029, 0.5035890912585322, 1.4576654202202959, 5.985708985714132, 0.32942071365895825, -0.0002783126479992378, -0.13722876988843494, 2.7183008549454297, 0.5342099920259736, -1.8962171908038277, -2.001646878523538]

>  <energy>  (3) 
-948.5122346584886

>  <inter_energy>  (3) 
-1037.0768927266406

>  <intra_energy>  (3) 
97.83790904966972

>  <rmsd>  (3) 
2.25996

>  <sdf_rank>  (3) 
0

$$$$

     RDKit          3D

 49 51  0  0  0  0  0  0  0  0999 V2000
   14.7541    6.9129   14.3242 C   0  0  0  0  0  0  0  0  0  0  0  0
   14.1131   11.4110   13.9236 N   0  0  0  0  0  0  0  0  0  0  0  0
   13.0260   12.0579   14.6663 C   0  0  0  0  0  0  0  0  0  0  0  0
   13.5742   12.9140   19.2964 C   0  0  0  0  0  0  0  0  0  0  0  0
   11.5258   12.1374   20.3448 C   0  0  0  0  0  0  0  0  0  0  0  0
   11.0912   11.6193   19.1418 C   0  0  0  0  0  0  0  0  0  0  0  0
   18.8288    4.3062   14.2416 C   0  0  0  0  0  0  0  0  0  0  0  0
   18.2043    5.4471   13.8011 C   0  0  0  0  0  0  0  0  0  0  0  0
   16.8538    5.5832   14.1128 C   0  0  0  0  0  0  0  0  0  0  0  0
   15.9913    6.7771   13.7642 C   0  0  0  0  0  0  0  0  0  0  0  0
   16.5600    7.7858   12.9679 C   0  0  0  0  0  0  0  0  0  0  0  0
   15.8069    8.9362   12.6844 C   0  0  0  0  0  0  0  0  0  0  0  0
   14.5370    9.0746   13.2449 C   0  0  0  0  0  0  0  0  0  0  0  0
   13.9885    8.0932   14.0396 C   0  0  0  0  0  0  0  0  0  0  0  0
   13.7827   10.3590   12.9778 C   0  0  2  0  0  0  0  0  0  0  0  0
   13.4226   13.2116   15.6650 C   0  0  0  0  0  0  0  0  0  0  0  0
   13.1410   12.3970   18.0921 C   0  0  0  0  0  0  0  0  0  0  0  0
   12.7696   12.7668   20.4050 C   0  0  0  0  0  0  0  0  0  0  0  0
   11.8730   11.7556   18.0077 C   0  0  0  0  0  0  0  0  0  0  0  0
   13.7854   10.8244   11.5504 C   0  0  0  0  0  0  0  0  0  0  0  0
   16.1781    4.6178   14.8827 C   0  0  0  0  0  0  0  0  0  0  0  0
   16.8326    3.4797   15.3100 C   0  0  0  0  0  0  0  0  0  0  0  0
   18.1648    3.3388   14.9928 C   0  0  0  0  0  0  0  0  0  0  0  0
   20.1358    4.1177   13.9388 F   0  0  0  0  0  0  0  0  0  0  0  0
   13.1764   13.2826   21.5724 F   0  0  0  0  0  0  0  0  0  0  0  0
    9.8764   10.9978   19.1125 F   0  0  0  0  0  0  0  0  0  0  0  0
   16.2173    2.4933   16.0683 F   0  0  0  0  0  0  0  0  0  0  0  0
   18.8141    2.1993   15.4355 F   0  0  0  0  0  0  0  0  0  0  0  0
   14.0107   12.5636   16.9061 N   0  0  0  0  0  0  0  0  0  0  0  0
   13.3627   12.1972   11.3822 N   0  0  0  0  0  0  0  0  0  0  0  0
   11.9128   11.7623   14.4961 O   0  0  0  0  0  0  0  0  0  0  0  0
   13.3413   12.6775   10.0684 O   0  0  0  0  0  0  0  0  0  0  0  0
   14.1505   10.1265   10.6437 O   0  0  0  0  0  0  0  0  0  0  0  0
   14.3501    6.1302   14.9831 H   0  0  0  0  0  0  0  0  0  0  0  0
   15.0917   11.6970   14.0700 H   0  0  0  0  0  0  0  0  0  0  0  0
   14.5415   13.4326   19.3694 H   0  0  0  0  0  0  0  0  0  0  0  0
   10.8993   12.0552   21.2452 H   0  0  0  0  0  0  0  0  0  0  0  0
   18.7446    6.2162   13.2297 H   0  0  0  0  0  0  0  0  0  0  0  0
   17.5805    7.6756   12.5725 H   0  0  0  0  0  0  0  0  0  0  0  0
   16.2135    9.7194   12.0277 H   0  0  0  0  0  0  0  0  0  0  0  0
   12.9755    8.2122   14.4516 H   0  0  0  0  0  0  0  0  0  0  0  0
   12.7308   10.0912   13.1560 H   0  0  0  0  0  0  0  0  0  0  0  0
   14.1679   13.8722   15.1980 H   0  0  0  0  0  0  0  0  0  0  0  0
   12.5414   13.8162   15.9259 H   0  0  0  0  0  0  0  0  0  0  0  0
   11.5149   11.3688   17.0423 H   0  0  0  0  0  0  0  0  0  0  0  0
   15.1211    4.7711   15.1458 H   0  0  0  0  0  0  0  0  0  0  0  0
   14.9909   12.2477   16.9222 H   0  0  0  0  0  0  0  0  0  0  0  0
   13.0933   12.7867   12.1827 H   0  0  0  0  0  0  0  0  0  0  0  0
   13.2973   13.6665   10.0792 H   0  0  0  0  0  0  0  0  0  0  0  0
  1 10  2  0
  1 14  1  0
  2  3  1  0
 15  2  1  0
  3 16  1  0
  3 31  2  0
  4 17  2  0
  4 18  1  0
  5  6  1  0
  5 18  2  0
  6 19  2  0
  6 26  1  0
  7  8  2  0
  7 23  1  0
  7 24  1  0
  8  9  1  0
  9 10  1  0
  9 21  2  0
 10 11  1  0
 11 12  2  0
 12 13  1  0
 13 14  2  0
 13 15  1  0
 15 20  1  0
 16 29  1  0
 17 19  1  0
 17 29  1  0
 18 25  1  0
 20 30  1  0
 20 33  2  0
 21 22  1  0
 22 23  2  0
 22 27  1  0
 23 28  1  0
 30 32  1  0
  1 34  1  0
  2 35  1  0
  4 36  1  0
  5 37  1  0
  8 38  1  0
 11 39  1  0
 12 40  1  0
 14 41  1  0
 15 42  1  1
 16 43  1  0
 16 44  1  0
 19 45  1  0
 21 46  1  0
 29 47  1  0
 30 48  1  0
 32 49  1  0
M  END
>  <filename_input>  (4) 
8EYE_X4I_docked.sdf

>  <pdb_id>  (4) 
8EYE_X4I

>  <pose_rank>  (4) 
3

>  <num_atoms_heavy>  (4) 
33

>  <num_torsions>  (4) 
7

>  <pose>  (4) 
[13.78269737703836, 10.359032059002873, 12.977847323198054, -1.213456167007811, 1.2690684184818033, -3.1353265474911574, -1.2252911248239533, -5.101001934142407, 1.6354567891892429, -0.4320174769704563, -1.2880143793753387, -12.7111457080781, 0.5135921624971898]

>  <energy>  (4) 
-892.9205504711376

>  <inter_energy>  (4) 
-927.1544612476265

>  <intra_energy>  (4) 
22.213556193141173

>  <rmsd>  (4) 
7.84617

>  <sdf_rank>  (4) 
0

$$$$

     RDKit          3D

 49 51  0  0  0  0  0  0  0  0999 V2000
   15.7691    6.5146   12.2464 C   0  0  0  0  0  0  0  0  0  0  0  0
   14.3243   10.9840   13.4267 N   0  0  0  0  0  0  0  0  0  0  0  0
   13.1909   11.3974   14.2611 C   0  0  0  0  0  0  0  0  0  0  0  0
   11.5298   12.0815   18.5481 C   0  0  0  0  0  0  0  0  0  0  0  0
   12.9243   12.6030   20.4668 C   0  0  0  0  0  0  0  0  0  0  0  0
   13.8942   13.1261   19.6361 C   0  0  0  0  0  0  0  0  0  0  0  0
   18.7742    3.5826   13.6268 C   0  0  0  0  0  0  0  0  0  0  0  0
   17.7282    4.4662   13.5241 C   0  0  0  0  0  0  0  0  0  0  0  0
   18.0146    5.7174   12.9836 C   0  0  0  0  0  0  0  0  0  0  0  0
   17.0043    6.8180   12.7411 C   0  0  0  0  0  0  0  0  0  0  0  0
   17.3345    8.1157   13.1675 C   0  0  0  0  0  0  0  0  0  0  0  0
   16.3903    9.1436   13.0169 C   0  0  0  0  0  0  0  0  0  0  0  0
   15.1301    8.8410   12.5009 C   0  0  0  0  0  0  0  0  0  0  0  0
   14.8020    7.5652   12.1004 C   0  0  0  0  0  0  0  0  0  0  0  0
   14.1124    9.9580   12.4204 C   0  0  2  0  0  0  0  0  0  0  0  0
   13.4550   12.5308   15.3250 C   0  0  0  0  0  0  0  0  0  0  0  0
   12.4991   12.6037   17.7155 C   0  0  0  0  0  0  0  0  0  0  0  0
   11.7491   12.0995   19.9081 C   0  0  0  0  0  0  0  0  0  0  0  0
   13.7076   13.1177   18.2646 C   0  0  0  0  0  0  0  0  0  0  0  0
   13.8739   10.5163   11.0472 C   0  0  0  0  0  0  0  0  0  0  0  0
   19.3052    6.0389   12.5228 C   0  0  0  0  0  0  0  0  0  0  0  0
   20.3375    5.1298   12.6411 C   0  0  0  0  0  0  0  0  0  0  0  0
   20.0579    3.8967   13.1856 C   0  0  0  0  0  0  0  0  0  0  0  0
   18.5487    2.3628   14.1715 F   0  0  0  0  0  0  0  0  0  0  0  0
   10.8202   11.5775   20.7199 F   0  0  0  0  0  0  0  0  0  0  0  0
   15.0291   13.6234   20.2087 F   0  0  0  0  0  0  0  0  0  0  0  0
   21.6297    5.3925   12.2077 F   0  0  0  0  0  0  0  0  0  0  0  0
   21.0977    2.9890   13.2896 F   0  0  0  0  0  0  0  0  0  0  0  0
   12.2560   12.5762   16.2558 N   0  0  0  0  0  0  0  0  0  0  0  0
   13.7091   11.9529   11.0206 N   0  0  0  0  0  0  0  0  0  0  0  0
   12.1303   10.9393   14.1172 O   0  0  0  0  0  0  0  0  0  0  0  0
   13.4774   12.5221    9.7638 O   0  0  0  0  0  0  0  0  0  0  0  0
   13.8680    9.8292   10.0622 O   0  0  0  0  0  0  0  0  0  0  0  0
   15.5185    5.4814   11.9641 H   0  0  0  0  0  0  0  0  0  0  0  0
   15.2524   11.4128   13.5519 H   0  0  0  0  0  0  0  0  0  0  0  0
   10.6019   11.6598   18.1344 H   0  0  0  0  0  0  0  0  0  0  0  0
   13.0759   12.5833   21.5562 H   0  0  0  0  0  0  0  0  0  0  0  0
   16.7131    4.1988   13.8530 H   0  0  0  0  0  0  0  0  0  0  0  0
   18.3187    8.3232   13.6128 H   0  0  0  0  0  0  0  0  0  0  0  0
   16.6412   10.1758   13.3025 H   0  0  0  0  0  0  0  0  0  0  0  0
   13.8105    7.3535   11.6736 H   0  0  0  0  0  0  0  0  0  0  0  0
   13.1589    9.4667   12.6641 H   0  0  0  0  0  0  0  0  0  0  0  0
   14.3659   12.3025   15.8978 H   0  0  0  0  0  0  0  0  0  0  0  0
   13.5946   13.5020   14.8278 H   0  0  0  0  0  0  0  0  0  0  0  0
   14.4923   13.5077   17.5997 H   0  0  0  0  0  0  0  0  0  0  0  0
   19.4926    7.0215   12.0651 H   0  0  0  0  0  0  0  0  0  0  0  0
   11.2969   12.5875   15.8804 H   0  0  0  0  0  0  0  0  0  0  0  0
   13.7593   12.5234   11.8767 H   0  0  0  0  0  0  0  0  0  0  0  0
   13.1067   13.4330    9.8773 H   0  0  0  0  0  0  0  0  0  0  0  0
  1 10  2  0
  1 14  1  0
  2  3  1  0
 15  2  1  0
  3 16  1  0
  3 31  2  0
  4 17  2  0
  4 18  1  0
  5  6  1  0
  5 18  2  0
  6 19  2  0
  6 26  1  0
  7  8  2  0
  7 23  1  0
  7 24  1  0
  8  9  1  0
  9 10  1  0
  9 21  2  0
 10 11  1  0
 11 12  2  0
 12 13  1  0
 13 14  2  0
 13 15  1  0
 15 20  1  0
 16 29  1  0
 17 19  1  0
 17 29  1  0
 18 25  1  0
 20 30  1  0
 20 33  2  0
 21 22  1  0
 22 23  2  0
 22 27  1  0
 23 28  1  0
 30 32  1  0
  1 34  1  0
  2 35  1  0
  4 36  1  0
  5 37  1  0
  8 38  1  0
 11 39  1  0
 12 40  1  0
 14 41  1  0
 15 42  1  1
 16 43  1  0
 16 44  1  0
 19 45  1  0
 21 46  1  0
 29 47  1  0
 30 48  1  0
 32 49  1  0
M  END
>  <filename_input>  (5) 
8EYE_X4I_docked.sdf

>  <pdb_id>  (5) 
8EYE_X4I

>  <pose_rank>  (5) 
4

>  <num_atoms_heavy>  (5) 
33

>  <num_torsions>  (5) 
7

>  <pose>  (5) 
[14.112366547542775, 9.958043463627067, 12.420358421971057, 1.191447337643039, -0.9617567593543052, 2.419497686185494, -6.488417604813525, 3.404016459368185, -4.217881668017115, -6.782062567794945, -15.451323313829144, 10.175024357223236, 0.04086730087884023]

>  <energy>  (5) 
-869.5835394231586

>  <inter_energy>  (5) 
-876.3648113180528

>  <intra_energy>  (5) 
9.33538533054162

>  <rmsd>  (5) 
8.48984

>  <sdf_rank>  (5) 
0

$$$$

     RDKit          3D

 49 51  0  0  0  0  0  0  0  0999 V2000
   15.0948    7.4028   14.3554 C   0  0  0  0  0  0  0  0  0  0  0  0
   13.1392   11.2658   15.0986 N   0  0  0  0  0  0  0  0  0  0  0  0
   13.7643   12.5880   15.2117 C   0  0  0  0  0  0  0  0  0  0  0  0
   11.8359   11.6476   18.8030 C   0  0  0  0  0  0  0  0  0  0  0  0
   11.5054   12.1822   21.1489 C   0  0  0  0  0  0  0  0  0  0  0  0
   12.7828   12.6987   21.2246 C   0  0  0  0  0  0  0  0  0  0  0  0
   19.3366    5.7573   12.7133 C   0  0  0  0  0  0  0  0  0  0  0  0
   18.3998    6.7578   12.6292 C   0  0  0  0  0  0  0  0  0  0  0  0
   17.2201    6.5744   13.3464 C   0  0  0  0  0  0  0  0  0  0  0  0
   16.0818    7.5686   13.4274 C   0  0  0  0  0  0  0  0  0  0  0  0
   16.1561    8.7167   12.6204 C   0  0  0  0  0  0  0  0  0  0  0  0
   15.1486    9.6889   12.7236 C   0  0  0  0  0  0  0  0  0  0  0  0
   14.1310    9.5185   13.6625 C   0  0  0  0  0  0  0  0  0  0  0  0
   14.0697    8.4015   14.4651 C   0  0  0  0  0  0  0  0  0  0  0  0
   13.1024   10.6203   13.7977 C   0  0  2  0  0  0  0  0  0  0  0  0
   13.8065   13.2449   16.6444 C   0  0  0  0  0  0  0  0  0  0  0  0
   13.1142   12.1632   18.8769 C   0  0  0  0  0  0  0  0  0  0  0  0
   11.0472   11.6754   19.9323 C   0  0  0  0  0  0  0  0  0  0  0  0
   13.6030   12.6804   20.1097 C   0  0  0  0  0  0  0  0  0  0  0  0
   13.0447   11.5932   12.6557 C   0  0  0  0  0  0  0  0  0  0  0  0
   17.0222    5.4388   14.1542 C   0  0  0  0  0  0  0  0  0  0  0  0
   17.9821    4.4485   14.2171 C   0  0  0  0  0  0  0  0  0  0  0  0
   19.1439    4.6235   13.4997 C   0  0  0  0  0  0  0  0  0  0  0  0
   20.4887    5.8796   12.0109 F   0  0  0  0  0  0  0  0  0  0  0  0
    9.8124   11.1598   19.8716 F   0  0  0  0  0  0  0  0  0  0  0  0
   13.2023   13.1995   22.4230 F   0  0  0  0  0  0  0  0  0  0  0  0
   17.8405    3.3064   14.9932 F   0  0  0  0  0  0  0  0  0  0  0  0
   20.1042    3.6297   13.5784 F   0  0  0  0  0  0  0  0  0  0  0  0
   13.9550   12.1253   17.6594 N   0  0  0  0  0  0  0  0  0  0  0  0
   13.5465   11.0608   11.4082 N   0  0  0  0  0  0  0  0  0  0  0  0
   14.2470   13.1136   14.2917 O   0  0  0  0  0  0  0  0  0  0  0  0
   13.5205   11.9314   10.3133 O   0  0  0  0  0  0  0  0  0  0  0  0
   12.5801   12.6950   12.7681 O   0  0  0  0  0  0  0  0  0  0  0  0
   15.0850    6.5180   15.0088 H   0  0  0  0  0  0  0  0  0  0  0  0
   12.7341   10.8041   15.9254 H   0  0  0  0  0  0  0  0  0  0  0  0
   11.4549   11.2235   17.8623 H   0  0  0  0  0  0  0  0  0  0  0  0
   10.8562   12.1703   22.0368 H   0  0  0  0  0  0  0  0  0  0  0  0
   18.5727    7.6603   12.0247 H   0  0  0  0  0  0  0  0  0  0  0  0
   16.9917    8.8517   11.9179 H   0  0  0  0  0  0  0  0  0  0  0  0
   15.1614   10.5747   12.0716 H   0  0  0  0  0  0  0  0  0  0  0  0
   13.2448    8.2759   15.1819 H   0  0  0  0  0  0  0  0  0  0  0  0
   12.1390   10.0936   13.7320 H   0  0  0  0  0  0  0  0  0  0  0  0
   14.6622   13.9324   16.7166 H   0  0  0  0  0  0  0  0  0  0  0  0
   12.8869   13.8180   16.8336 H   0  0  0  0  0  0  0  0  0  0  0  0
   14.6313   13.0652   20.1762 H   0  0  0  0  0  0  0  0  0  0  0  0
   16.0961    5.3397   14.7396 H   0  0  0  0  0  0  0  0  0  0  0  0
   14.6246   11.3581   17.5045 H   0  0  0  0  0  0  0  0  0  0  0  0
   13.9021   10.0973   11.3303 H   0  0  0  0  0  0  0  0  0  0  0  0
   13.4926   12.8669   10.6362 H   0  0  0  0  0  0  0  0  0  0  0  0
  1 10  2  0
  1 14  1  0
  2  3  1  0
 15  2  1  0
  3 16  1  0
  3 31  2  0
  4 17  2  0
  4 18  1  0
  5  6  1  0
  5 18  2  0
  6 19  2  0
  6 26  1  0
  7  8  2  0
  7 23  1  0
  7 24  1  0
  8  9  1  0
  9 10  1  0
  9 21  2  0
 10 11  1  0
 11 12  2  0
 12 13  1  0
 13 14  2  0
 13 15  1  0
 15 20  1  0
 16 29  1  0
 17 19  1  0
 17 29  1  0
 18 25  1  0
 20 30  1  0
 20 33  2  0
 21 22  1  0
 22 23  2  0
 22 27  1  0
 23 28  1  0
 30 32  1  0
  1 34  1  0
  2 35  1  0
  4 36  1  0
  5 37  1  0
  8 38  1  0
 11 39  1  0
 12 40  1  0
 14 41  1  0
 15 42  1  1
 16 43  1  0
 16 44  1  0
 19 45  1  0
 21 46  1  0
 29 47  1  0
 30 48  1  0
 32 49  1  0
M  END
>  <filename_input>  (6) 
8EYE_X4I_docked.sdf

>  <pdb_id>  (6) 
8EYE_X4I

>  <pose_rank>  (6) 
5

>  <num_atoms_heavy>  (6) 
33

>  <num_torsions>  (6) 
7

>  <pose>  (6) 
[13.102415212420162, 10.620275289021585, 13.79773103645908, -1.1899104950681116, 1.5252676130318379, -2.583181703625923, -1.7345840431657047, -5.08807109506239, 4.9351044157578805, 3.5620250037868226, 0.6233238165682639, -0.7805783642548421, 4.176938208525467]

>  <energy>  (6) 
-599.8445997982013

>  <inter_energy>  (6) 
-739.6151970106423

>  <intra_energy>  (6) 
138.04132256601153

>  <rmsd>  (6) 
8.06682

>  <sdf_rank>  (6) 
0

$$$$

     RDKit          3D

 49 51  0  0  0  0  0  0  0  0999 V2000
   13.6205   10.7595   15.6450 C   0  0  0  0  0  0  0  0  0  0  0  0
   16.0356    8.0861   13.1480 N   0  0  0  0  0  0  0  0  0  0  0  0
   16.5295    7.4738   11.9100 C   0  0  0  0  0  0  0  0  0  0  0  0
   19.1325    5.3354   12.5537 C   0  0  0  0  0  0  0  0  0  0  0  0
   18.6882    2.9478   12.5606 C   0  0  0  0  0  0  0  0  0  0  0  0
   18.1569    3.0298   11.2896 C   0  0  0  0  0  0  0  0  0  0  0  0
   13.2919   12.8463   19.5702 C   0  0  0  0  0  0  0  0  0  0  0  0
   13.7933   12.1588   18.4924 C   0  0  0  0  0  0  0  0  0  0  0  0
   13.0643   11.0543   18.0585 C   0  0  0  0  0  0  0  0  0  0  0  0
   13.4132   10.1885   16.8672 C   0  0  0  0  0  0  0  0  0  0  0  0
   13.6462    8.8218   17.0966 C   0  0  0  0  0  0  0  0  0  0  0  0
   14.0374    8.0072   16.0222 C   0  0  0  0  0  0  0  0  0  0  0  0
   14.2393    8.5839   14.7682 C   0  0  0  0  0  0  0  0  0  0  0  0
   14.0280    9.9267   14.5493 C   0  0  0  0  0  0  0  0  0  0  0  0
   14.7312    7.6904   13.6502 C   0  0  2  0  0  0  0  0  0  0  0  0
   17.9597    7.9109   11.4106 C   0  0  0  0  0  0  0  0  0  0  0  0
   18.6009    5.4197   11.2826 C   0  0  0  0  0  0  0  0  0  0  0  0
   19.1804    4.1034   13.1683 C   0  0  0  0  0  0  0  0  0  0  0  0
   18.0886    4.2538   10.6467 C   0  0  0  0  0  0  0  0  0  0  0  0
   14.6180    6.2152   13.9057 C   0  0  0  0  0  0  0  0  0  0  0  0
   11.8484   10.6927   18.6688 C   0  0  0  0  0  0  0  0  0  0  0  0
   11.3706   11.4025   19.7523 C   0  0  0  0  0  0  0  0  0  0  0  0
   12.0963   12.4878   20.1890 C   0  0  0  0  0  0  0  0  0  0  0  0
   13.9816   13.9117   20.0445 F   0  0  0  0  0  0  0  0  0  0  0  0
   19.6784    4.0185   14.4089 F   0  0  0  0  0  0  0  0  0  0  0  0
   17.6935    1.8829   10.7128 F   0  0  0  0  0  0  0  0  0  0  0  0
   10.1809   11.0904   20.3955 F   0  0  0  0  0  0  0  0  0  0  0  0
   11.6026   13.1989   21.2691 F   0  0  0  0  0  0  0  0  0  0  0  0
   18.5502    6.7482   10.6323 N   0  0  0  0  0  0  0  0  0  0  0  0
   15.8140    5.6254   14.4653 N   0  0  0  0  0  0  0  0  0  0  0  0
   15.9113    6.6677   11.3411 O   0  0  0  0  0  0  0  0  0  0  0  0
   15.7620    4.2499   14.7158 O   0  0  0  0  0  0  0  0  0  0  0  0
   13.6068    5.5998   13.7027 O   0  0  0  0  0  0  0  0  0  0  0  0
   13.4774   11.8407   15.5019 H   0  0  0  0  0  0  0  0  0  0  0  0
   16.6026    8.7832   13.6515 H   0  0  0  0  0  0  0  0  0  0  0  0
   19.5100    6.2332   13.0651 H   0  0  0  0  0  0  0  0  0  0  0  0
   18.7233    1.9832   13.0882 H   0  0  0  0  0  0  0  0  0  0  0  0
   14.7257   12.4655   17.9959 H   0  0  0  0  0  0  0  0  0  0  0  0
   13.5238    8.3963   18.1036 H   0  0  0  0  0  0  0  0  0  0  0  0
   14.1830    6.9266   16.1675 H   0  0  0  0  0  0  0  0  0  0  0  0
   14.1699   10.3562   13.5466 H   0  0  0  0  0  0  0  0  0  0  0  0
   14.0119    7.8634   12.8361 H   0  0  0  0  0  0  0  0  0  0  0  0
   17.8761    8.7938   10.7599 H   0  0  0  0  0  0  0  0  0  0  0  0
   18.6036    8.1711   12.2637 H   0  0  0  0  0  0  0  0  0  0  0  0
   17.6388    4.3254    9.6454 H   0  0  0  0  0  0  0  0  0  0  0  0
   11.2750    9.8384   18.2797 H   0  0  0  0  0  0  0  0  0  0  0  0
   18.9069    6.8810    9.6752 H   0  0  0  0  0  0  0  0  0  0  0  0
   16.6547    6.1850   14.6676 H   0  0  0  0  0  0  0  0  0  0  0  0
   15.7561    4.0925   15.6932 H   0  0  0  0  0  0  0  0  0  0  0  0
  1 10  2  0
  1 14  1  0
  2  3  1  0
 15  2  1  0
  3 16  1  0
  3 31  2  0
  4 17  2  0
  4 18  1  0
  5  6  1  0
  5 18  2  0
  6 19  2  0
  6 26  1  0
  7  8  2  0
  7 23  1  0
  7 24  1  0
  8  9  1  0
  9 10  1  0
  9 21  2  0
 10 11  1  0
 11 12  2  0
 12 13  1  0
 13 14  2  0
 13 15  1  0
 15 20  1  0
 16 29  1  0
 17 19  1  0
 17 29  1  0
 18 25  1  0
 20 30  1  0
 20 33  2  0
 21 22  1  0
 22 23  2  0
 22 27  1  0
 23 28  1  0
 30 32  1  0
  1 34  1  0
  2 35  1  0
  4 36  1  0
  5 37  1  0
  8 38  1  0
 11 39  1  0
 12 40  1  0
 14 41  1  0
 15 42  1  6
 16 43  1  0
 16 44  1  0
 19 45  1  0
 21 46  1  0
 29 47  1  0
 30 48  1  0
 32 49  1  0
M  END
>  <filename_input>  (7) 
8EYE_X4I_docked.sdf

>  <pdb_id>  (7) 
8EYE_X4I

>  <pose_rank>  (7) 
6

>  <num_atoms_heavy>  (7) 
33

>  <num_torsions>  (7) 
7

>  <pose>  (7) 
[14.731165947039445, 7.690390115255048, 13.650216204344845, 2.14409220358324, -1.6380061119852662, -3.434906443280478, -1.7665496668343648, 3.1852783158685405, 2.88598784221196, -1.1910341844655044, 2.688309723919004, 0.6553598750947813, 1.8338824011980959]

>  <energy>  (7) 
-710.3915152668072

>  <inter_energy>  (7) 
-751.7381165271227

>  <intra_energy>  (7) 
45.78599359105509

>  <rmsd>  (7) 
3.98286

>  <sdf_rank>  (7) 
0

$$$$

     RDKit          3D

 49 51  0  0  0  0  0  0  0  0999 V2000
   13.1977   10.4292   15.7829 C   0  0  0  0  0  0  0  0  0  0  0  0
   16.1492    7.9066   13.5697 N   0  0  0  0  0  0  0  0  0  0  0  0
   16.3645    8.8312   12.4514 C   0  0  0  0  0  0  0  0  0  0  0  0
   17.3508    6.0366   10.6430 C   0  0  0  0  0  0  0  0  0  0  0  0
   18.0032    4.0530   11.8829 C   0  0  0  0  0  0  0  0  0  0  0  0
   18.8984    4.7957   12.6255 C   0  0  0  0  0  0  0  0  0  0  0  0
   11.2470   11.4321   19.9469 C   0  0  0  0  0  0  0  0  0  0  0  0
   11.4730   10.5855   18.8896 C   0  0  0  0  0  0  0  0  0  0  0  0
   12.6719   10.7493   18.2000 C   0  0  0  0  0  0  0  0  0  0  0  0
   13.1367    9.8976   17.0384 C   0  0  0  0  0  0  0  0  0  0  0  0
   13.6235    8.6105   17.3236 C   0  0  0  0  0  0  0  0  0  0  0  0
   14.1241    7.8232   16.2746 C   0  0  0  0  0  0  0  0  0  0  0  0
   14.1778    8.3576   14.9872 C   0  0  0  0  0  0  0  0  0  0  0  0
   13.7170    9.6257   14.7128 C   0  0  0  0  0  0  0  0  0  0  0  0
   14.7903    7.5087   13.8944 C   0  0  2  0  0  0  0  0  0  0  0  0
   17.8549    9.2199   12.1145 C   0  0  0  0  0  0  0  0  0  0  0  0
   18.2461    6.7812   11.3843 C   0  0  0  0  0  0  0  0  0  0  0  0
   17.2327    4.6902   10.9098 C   0  0  0  0  0  0  0  0  0  0  0  0
   19.0455    6.1497   12.3784 C   0  0  0  0  0  0  0  0  0  0  0  0
   14.6327    6.0253   14.0646 C   0  0  0  0  0  0  0  0  0  0  0  0
   13.6232   11.7064   18.6006 C   0  0  0  0  0  0  0  0  0  0  0  0
   13.3666   12.5448   19.6670 C   0  0  0  0  0  0  0  0  0  0  0  0
   12.1769   12.3912   20.3424 C   0  0  0  0  0  0  0  0  0  0  0  0
   10.0820   11.3276   20.6306 F   0  0  0  0  0  0  0  0  0  0  0  0
   16.3789    3.9590   10.1813 F   0  0  0  0  0  0  0  0  0  0  0  0
   19.6311    4.1506   13.5795 F   0  0  0  0  0  0  0  0  0  0  0  0
   14.2649   13.5082   20.1046 F   0  0  0  0  0  0  0  0  0  0  0  0
   11.9344   13.2297   21.4167 F   0  0  0  0  0  0  0  0  0  0  0  0
   18.3685    8.2260   11.0876 N   0  0  0  0  0  0  0  0  0  0  0  0
   15.8861    5.3045   14.1001 N   0  0  0  0  0  0  0  0  0  0  0  0
   15.4770    9.2294   11.8115 O   0  0  0  0  0  0  0  0  0  0  0  0
   15.7932    3.9167   14.2505 O   0  0  0  0  0  0  0  0  0  0  0  0
   13.5613    5.5008   14.2033 O   0  0  0  0  0  0  0  0  0  0  0  0
   12.8543   11.4570   15.5940 H   0  0  0  0  0  0  0  0  0  0  0  0
   16.9459    7.5466   14.1141 H   0  0  0  0  0  0  0  0  0  0  0  0
   16.7443    6.5085    9.8559 H   0  0  0  0  0  0  0  0  0  0  0  0
   17.8984    2.9717   12.0561 H   0  0  0  0  0  0  0  0  0  0  0  0
   10.7426    9.8153   18.6012 H   0  0  0  0  0  0  0  0  0  0  0  0
   13.6125    8.2255   18.3539 H   0  0  0  0  0  0  0  0  0  0  0  0
   14.4699    6.7966   16.4656 H   0  0  0  0  0  0  0  0  0  0  0  0
   13.7464   10.0185   13.6858 H   0  0  0  0  0  0  0  0  0  0  0  0
   14.1749    7.7299   13.0099 H   0  0  0  0  0  0  0  0  0  0  0  0
   17.8926   10.2388   11.7017 H   0  0  0  0  0  0  0  0  0  0  0  0
   18.4756    9.1925   13.0223 H   0  0  0  0  0  0  0  0  0  0  0  0
   19.7795    6.7371   12.9497 H   0  0  0  0  0  0  0  0  0  0  0  0
   14.5780   11.7868   18.0602 H   0  0  0  0  0  0  0  0  0  0  0  0
   18.7917    8.5495   10.2061 H   0  0  0  0  0  0  0  0  0  0  0  0
   16.7937    5.7847   14.0194 H   0  0  0  0  0  0  0  0  0  0  0  0
   15.7780    3.6895   15.2140 H   0  0  0  0  0  0  0  0  0  0  0  0
  1 10  2  0
  1 14  1  0
  2  3  1  0
 15  2  1  0
  3 16  1  0
  3 31  2  0
  4 17  2  0
  4 18  1  0
  5  6  1  0
  5 18  2  0
  6 19  2  0
  6 26  1  0
  7  8  2  0
  7 23  1  0
  7 24  1  0
  8  9  1  0
  9 10  1  0
  9 21  2  0
 10 11  1  0
 11 12  2  0
 12 13  1  0
 13 14  2  0
 13 15  1  0
 15 20  1  0
 16 29  1  0
 17 19  1  0
 17 29  1  0
 18 25  1  0
 20 30  1  0
 20 33  2  0
 21 22  1  0
 22 23  2  0
 22 27  1  0
 23 28  1  0
 30 32  1  0
  1 34  1  0
  2 35  1  0
  4 36  1  0
  5 37  1  0
  8 38  1  0
 11 39  1  0
 12 40  1  0
 14 41  1  0
 15 42  1  6
 16 43  1  0
 16 44  1  0
 19 45  1  0
 21 46  1  0
 29 47  1  0
 30 48  1  0
 32 49  1  0
M  END
>  <filename_input>  (8) 
8EYE_X4I_docked.sdf

>  <pdb_id>  (8) 
8EYE_X4I

>  <pose_rank>  (8) 
7

>  <num_atoms_heavy>  (8) 
33

>  <num_torsions>  (8) 
7

>  <pose>  (8) 
[14.790297064613437, 7.508667927619414, 13.894393617648614, -0.9794301417417987, 0.599809660671186, 1.4369143946340863, -1.4976460686327056, -0.2336986105745269, -3.896991748259616, 6.381696145249311, 1.6324824475616677, 0.6623948503731727, 4.633188535156543]

>  <energy>  (8) 
-696.0924428161244

>  <inter_energy>  (8) 
-724.9309725348014

>  <intra_energy>  (8) 
30.87487539605053

>  <rmsd>  (8) 
3.91647

>  <sdf_rank>  (8) 
0

$$$$

     RDKit          3D

 49 51  0  0  0  0  0  0  0  0999 V2000
   14.0904    7.8506   16.4554 C   0  0  0  0  0  0  0  0  0  0  0  0
   14.3064   12.5677   17.2722 N   0  0  0  0  0  0  0  0  0  0  0  0
   15.1882   13.1620   18.2827 C   0  0  0  0  0  0  0  0  0  0  0  0
   19.6428   15.3194   18.4291 C   0  0  0  0  0  0  0  0  0  0  0  0
   19.8890   17.6646   19.0101 C   0  0  0  0  0  0  0  0  0  0  0  0
   18.5286   17.7698   19.2164 C   0  0  0  0  0  0  0  0  0  0  0  0
   15.7748    5.8113   12.4946 C   0  0  0  0  0  0  0  0  0  0  0  0
   15.5469    6.9690   13.1969 C   0  0  0  0  0  0  0  0  0  0  0  0
   14.5758    6.9171   14.1939 C   0  0  0  0  0  0  0  0  0  0  0  0
   14.2017    8.0611   15.1116 C   0  0  0  0  0  0  0  0  0  0  0  0
   14.1130    9.3473   14.5523 C   0  0  0  0  0  0  0  0  0  0  0  0
   13.8340   10.4377   15.3913 C   0  0  0  0  0  0  0  0  0  0  0  0
   13.7077   10.2261   16.7644 C   0  0  0  0  0  0  0  0  0  0  0  0
   13.8129    8.9677   17.3129 C   0  0  0  0  0  0  0  0  0  0  0  0
   13.4797   11.4336   17.6476 C   0  0  2  0  0  0  0  0  0  0  0  0
   16.0512   14.4064   17.8437 C   0  0  0  0  0  0  0  0  0  0  0  0
   18.2817   15.4228   18.6344 C   0  0  0  0  0  0  0  0  0  0  0  0
   20.4268   16.4342   18.6311 C   0  0  0  0  0  0  0  0  0  0  0  0
   17.7121   16.6701   19.0163 C   0  0  0  0  0  0  0  0  0  0  0  0
   12.0427   11.8004   17.8812 C   0  0  0  0  0  0  0  0  0  0  0  0
   13.8972    5.7211   14.4949 C   0  0  0  0  0  0  0  0  0  0  0  0
   14.1468    4.5731   13.7697 C   0  0  0  0  0  0  0  0  0  0  0  0
   15.0986    4.6262   12.7765 C   0  0  0  0  0  0  0  0  0  0  0  0
   16.6914    5.8214   11.4970 F   0  0  0  0  0  0  0  0  0  0  0  0
   21.7458   16.3448   18.4157 F   0  0  0  0  0  0  0  0  0  0  0  0
   18.0295   18.9814   19.5985 F   0  0  0  0  0  0  0  0  0  0  0  0
   13.5065    3.3671   14.0191 F   0  0  0  0  0  0  0  0  0  0  0  0
   15.3487    3.4668   12.0629 F   0  0  0  0  0  0  0  0  0  0  0  0
   17.4475   14.2208   18.4110 N   0  0  0  0  0  0  0  0  0  0  0  0
   11.5103   11.3103   19.1334 N   0  0  0  0  0  0  0  0  0  0  0  0
   15.2199   12.7598   19.3749 O   0  0  0  0  0  0  0  0  0  0  0  0
   10.1714   11.6200   19.3956 O   0  0  0  0  0  0  0  0  0  0  0  0
   11.4155   12.4779   17.1131 O   0  0  0  0  0  0  0  0  0  0  0  0
   14.2113    6.8408   16.8747 H   0  0  0  0  0  0  0  0  0  0  0  0
   14.2740   12.9471   16.3152 H   0  0  0  0  0  0  0  0  0  0  0  0
   20.0920   14.3671   18.1109 H   0  0  0  0  0  0  0  0  0  0  0  0
   20.5416   18.5402   19.1427 H   0  0  0  0  0  0  0  0  0  0  0  0
   16.1043    7.8928   12.9825 H   0  0  0  0  0  0  0  0  0  0  0  0
   14.2601    9.4975   13.4726 H   0  0  0  0  0  0  0  0  0  0  0  0
   13.7164   11.4474   14.9709 H   0  0  0  0  0  0  0  0  0  0  0  0
   13.6857    8.8201   18.3955 H   0  0  0  0  0  0  0  0  0  0  0  0
   13.8229   11.1054   18.6398 H   0  0  0  0  0  0  0  0  0  0  0  0
   16.0967   14.4627   16.7461 H   0  0  0  0  0  0  0  0  0  0  0  0
   15.6030   15.3384   18.2185 H   0  0  0  0  0  0  0  0  0  0  0  0
   16.6243   16.7600   19.1522 H   0  0  0  0  0  0  0  0  0  0  0  0
   13.1629    5.7011   15.3136 H   0  0  0  0  0  0  0  0  0  0  0  0
   17.8054   13.2812   18.6349 H   0  0  0  0  0  0  0  0  0  0  0  0
   12.0832   10.7652   19.7933 H   0  0  0  0  0  0  0  0  0  0  0  0
   10.0260   11.6537   20.3742 H   0  0  0  0  0  0  0  0  0  0  0  0
  1 10  2  0
  1 14  1  0
  2  3  1  0
 15  2  1  0
  3 16  1  0
  3 31  2  0
  4 17  2  0
  4 18  1  0
  5  6  1  0
  5 18  2  0
  6 19  2  0
  6 26  1  0
  7  8  2  0
  7 23  1  0
  7 24  1  0
  8  9  1  0
  9 10  1  0
  9 21  2  0
 10 11  1  0
 11 12  2  0
 12 13  1  0
 13 14  2  0
 13 15  1  0
 15 20  1  0
 16 29  1  0
 17 19  1  0
 17 29  1  0
 18 25  1  0
 20 30  1  0
 20 33  2  0
 21 22  1  0
 22 23  2  0
 22 27  1  0
 23 28  1  0
 30 32  1  0
  1 34  1  0
  2 35  1  0
  4 36  1  0
  5 37  1  0
  8 38  1  0
 11 39  1  0
 12 40  1  0
 14 41  1  0
 15 42  1  1
 16 43  1  0
 16 44  1  0
 19 45  1  0
 21 46  1  0
 29 47  1  0
 30 48  1  0
 32 49  1  0
M  END
>  <filename_input>  (9) 
8EYE_X4I_docked.sdf

>  <pdb_id>  (9) 
8EYE_X4I

>  <pose_rank>  (9) 
8

>  <num_atoms_heavy>  (9) 
33

>  <num_torsions>  (9) 
7

>  <pose>  (9) 
[13.479722620360688, 11.433618137624045, 17.64758962903509, 2.251246723370941, -0.11237551620571323, 0.8160138600334693, -0.4564085321915936, 8.085211642574711, -0.05351806036408718, -0.4025021103832717, -2.350078239217666, -1.129571340098668, 0.17183903249938204]

>  <energy>  (9) 
-584.1273918248851

>  <inter_energy>  (9) 
-575.4454737582414

>  <intra_energy>  (9) 
0.0

>  <rmsd>  (9) 
9.47966

>  <sdf_rank>  (9) 
0

$$$$

     RDKit          3D

 49 51  0  0  0  0  0  0  0  0999 V2000
   17.1548    5.8672   13.4423 C   0  0  0  0  0  0  0  0  0  0  0  0
   13.9167    8.2527   15.5527 N   0  0  0  0  0  0  0  0  0  0  0  0
   14.2045    9.2167   14.4851 C   0  0  0  0  0  0  0  0  0  0  0  0
   12.1351   11.0461   16.6861 C   0  0  0  0  0  0  0  0  0  0  0  0
   13.2725   11.8845   18.6614 C   0  0  0  0  0  0  0  0  0  0  0  0
   14.2598   12.4397   17.8731 C   0  0  0  0  0  0  0  0  0  0  0  0
   18.0652    2.7971   10.4541 C   0  0  0  0  0  0  0  0  0  0  0  0
   17.6774    3.8683   11.2208 C   0  0  0  0  0  0  0  0  0  0  0  0
   17.0889    3.5799   12.4497 C   0  0  0  0  0  0  0  0  0  0  0  0
   16.6324    4.6065   13.4638 C   0  0  0  0  0  0  0  0  0  0  0  0
   15.5728    4.2570   14.3182 C   0  0  0  0  0  0  0  0  0  0  0  0
   15.0835    5.2121   15.2232 C   0  0  0  0  0  0  0  0  0  0  0  0
   15.6220    6.4989   15.2133 C   0  0  0  0  0  0  0  0  0  0  0  0
   16.6481    6.8449   14.3629 C   0  0  0  0  0  0  0  0  0  0  0  0
   15.0216    7.5237   16.1511 C   0  0  2  0  0  0  0  0  0  0  0  0
   12.9819   10.0059   13.8781 C   0  0  0  0  0  0  0  0  0  0  0  0
   13.1220   11.6002   15.8960 C   0  0  0  0  0  0  0  0  0  0  0  0
   12.2165   11.2058   18.0521 C   0  0  0  0  0  0  0  0  0  0  0  0
   14.2107   12.2922   16.4976 C   0  0  0  0  0  0  0  0  0  0  0  0
   14.7245    7.0331   17.5386 C   0  0  0  0  0  0  0  0  0  0  0  0
   16.9438    2.2541   12.8999 C   0  0  0  0  0  0  0  0  0  0  0  0
   17.3417    1.1974   12.1054 C   0  0  0  0  0  0  0  0  0  0  0  0
   17.9135    1.4811   10.8857 C   0  0  0  0  0  0  0  0  0  0  0  0
   18.6178    3.0287    9.2390 F   0  0  0  0  0  0  0  0  0  0  0  0
   11.2716   10.6546   18.8251 F   0  0  0  0  0  0  0  0  0  0  0  0
   15.2751   13.1089   18.4931 F   0  0  0  0  0  0  0  0  0  0  0  0
   17.2204   -0.1292   12.4952 F   0  0  0  0  0  0  0  0  0  0  0  0
   18.3187    0.4147   10.1019 F   0  0  0  0  0  0  0  0  0  0  0  0
   13.0277   11.4199   14.4300 N   0  0  0  0  0  0  0  0  0  0  0  0
   13.3432    7.1984   17.9339 N   0  0  0  0  0  0  0  0  0  0  0  0
   15.2935    9.4226   14.1284 O   0  0  0  0  0  0  0  0  0  0  0  0
   13.0159    6.7625   19.2223 O   0  0  0  0  0  0  0  0  0  0  0  0
   15.5552    6.5112   18.2313 O   0  0  0  0  0  0  0  0  0  0  0  0
   17.9516    6.1298   12.7308 H   0  0  0  0  0  0  0  0  0  0  0  0
   12.9501    8.0959   15.8719 H   0  0  0  0  0  0  0  0  0  0  0  0
   11.3011   10.4888   16.2347 H   0  0  0  0  0  0  0  0  0  0  0  0
   13.3175   11.9758   19.7566 H   0  0  0  0  0  0  0  0  0  0  0  0
   17.8246    4.9040   10.8809 H   0  0  0  0  0  0  0  0  0  0  0  0
   15.1331    3.2495   14.2784 H   0  0  0  0  0  0  0  0  0  0  0  0
   14.2845    4.9489   15.9320 H   0  0  0  0  0  0  0  0  0  0  0  0
   17.0744    7.8586   14.3887 H   0  0  0  0  0  0  0  0  0  0  0  0
   15.8335    8.2494   16.3064 H   0  0  0  0  0  0  0  0  0  0  0  0
   13.0580   10.0290   12.7809 H   0  0  0  0  0  0  0  0  0  0  0  0
   12.0344    9.5167   14.1478 H   0  0  0  0  0  0  0  0  0  0  0  0
   15.0122   12.7092   15.8702 H   0  0  0  0  0  0  0  0  0  0  0  0
   16.5103    2.0586   13.8918 H   0  0  0  0  0  0  0  0  0  0  0  0
   12.9939   12.2337   13.7995 H   0  0  0  0  0  0  0  0  0  0  0  0
   12.6416    7.6128   17.3038 H   0  0  0  0  0  0  0  0  0  0  0  0
   13.4548    7.3471   19.8899 H   0  0  0  0  0  0  0  0  0  0  0  0
  1 10  2  0
  1 14  1  0
  2  3  1  0
 15  2  1  0
  3 16  1  0
  3 31  2  0
  4 17  2  0
  4 18  1  0
  5  6  1  0
  5 18  2  0
  6 19  2  0
  6 26  1  0
  7  8  2  0
  7 23  1  0
  7 24  1  0
  8  9  1  0
  9 10  1  0
  9 21  2  0
 10 11  1  0
 11 12  2  0
 12 13  1  0
 13 14  2  0
 13 15  1  0
 15 20  1  0
 16 29  1  0
 17 19  1  0
 17 29  1  0
 18 25  1  0
 20 30  1  0
 20 33  2  0
 21 22  1  0
 22 23  2  0
 22 27  1  0
 23 28  1  0
 30 32  1  0
  1 34  1  0
  2 35  1  0
  4 36  1  0
  5 37  1  0
  8 38  1  0
 11 39  1  0
 12 40  1  0
 14 41  1  0
 15 42  1  1
 16 43  1  0
 16 44  1  0
 19 45  1  0
 21 46  1  0
 29 47  1  0
 30 48  1  0
 32 49  1  0
M  END
>  <filename_input>  (10) 
8EYE_X4I_docked.sdf

>  <pdb_id>  (10) 
8EYE_X4I

>  <pose_rank>  (10) 
9

>  <num_atoms_heavy>  (10) 
33

>  <num_torsions>  (10) 
7

>  <pose>  (10) 
[15.021586819653919, 7.523687501441331, 16.151072701098514, -2.7997185154669912, -2.3623128076018833, -0.0310742403742085, 5.001602010952593, 3.7379322722575843, -3.9158294122200203, 0.5256664683415798, -4.411297067841176, -18.17507428055417, -17.15657483937386]

>  <energy>  (10) 
-491.4934935966036

>  <inter_energy>  (10) 
-513.6045003082469

>  <intra_energy>  (10) 
33.06760547857977

>  <rmsd>  (10) 
9.56779

>  <sdf_rank>  (10) 
0

$$$$

     RDKit          3D

 49 51  0  0  0  0  0  0  0  0999 V2000
   16.6493    4.9293   15.1560 C   0  0  0  0  0  0  0  0  0  0  0  0
   13.6557    8.7251   15.8573 N   0  0  0  0  0  0  0  0  0  0  0  0
   13.4712   10.0676   16.4191 C   0  0  0  0  0  0  0  0  0  0  0  0
   14.2955   10.2572   13.1924 C   0  0  0  0  0  0  0  0  0  0  0  0
   14.0698   10.4821   10.7848 C   0  0  0  0  0  0  0  0  0  0  0  0
   13.3676   11.6589   10.9475 C   0  0  0  0  0  0  0  0  0  0  0  0
   17.2289    1.8678   11.8206 C   0  0  0  0  0  0  0  0  0  0  0  0
   16.6087    2.5453   12.8413 C   0  0  0  0  0  0  0  0  0  0  0  0
   16.7861    3.9261   12.8765 C   0  0  0  0  0  0  0  0  0  0  0  0
   16.1575    4.8638   13.8846 C   0  0  0  0  0  0  0  0  0  0  0  0
   15.1610    5.7435   13.4284 C   0  0  0  0  0  0  0  0  0  0  0  0
   14.6075    6.6707   14.3255 C   0  0  0  0  0  0  0  0  0  0  0  0
   15.0986    6.7339   15.6295 C   0  0  0  0  0  0  0  0  0  0  0  0
   16.0877    5.8832   16.0698 C   0  0  0  0  0  0  0  0  0  0  0  0
   14.5304    7.7937   16.5483 C   0  0  2  0  0  0  0  0  0  0  0  0
   12.4951   11.0410   15.6538 C   0  0  0  0  0  0  0  0  0  0  0  0
   13.5928   11.4338   13.3572 C   0  0  0  0  0  0  0  0  0  0  0  0
   14.5345    9.8054   11.9130 C   0  0  0  0  0  0  0  0  0  0  0  0
   13.1053   12.1371   12.2197 C   0  0  0  0  0  0  0  0  0  0  0  0
   13.9545    7.2875   17.8392 C   0  0  0  0  0  0  0  0  0  0  0  0
   17.5273    4.5956   11.8846 C   0  0  0  0  0  0  0  0  0  0  0  0
   18.1411    3.8867   10.8712 C   0  0  0  0  0  0  0  0  0  0  0  0
   17.9755    2.5203   10.8419 C   0  0  0  0  0  0  0  0  0  0  0  0
   17.1067    0.5197   11.7614 F   0  0  0  0  0  0  0  0  0  0  0  0
   15.2000    8.6547   11.7473 F   0  0  0  0  0  0  0  0  0  0  0  0
   12.9347   12.3077    9.8274 F   0  0  0  0  0  0  0  0  0  0  0  0
   18.8863    4.4921    9.8689 F   0  0  0  0  0  0  0  0  0  0  0  0
   18.5860    1.8205    9.8155 F   0  0  0  0  0  0  0  0  0  0  0  0
   13.3377   11.9088   14.7356 N   0  0  0  0  0  0  0  0  0  0  0  0
   14.6186    6.1105   18.3540 N   0  0  0  0  0  0  0  0  0  0  0  0
   13.9896   10.3887   17.4109 O   0  0  0  0  0  0  0  0  0  0  0  0
   14.1146    5.5950   19.5530 O   0  0  0  0  0  0  0  0  0  0  0  0
   13.0541    7.8435   18.4072 O   0  0  0  0  0  0  0  0  0  0  0  0
   17.4631    4.2618   15.4754 H   0  0  0  0  0  0  0  0  0  0  0  0
   13.1744    8.4484   14.9897 H   0  0  0  0  0  0  0  0  0  0  0  0
   14.6570    9.6921   14.0642 H   0  0  0  0  0  0  0  0  0  0  0  0
   14.2608   10.0824    9.7779 H   0  0  0  0  0  0  0  0  0  0  0  0
   16.0010    2.0226   13.5947 H   0  0  0  0  0  0  0  0  0  0  0  0
   14.8196    5.7061   12.3834 H   0  0  0  0  0  0  0  0  0  0  0  0
   13.7958    7.3398   14.0037 H   0  0  0  0  0  0  0  0  0  0  0  0
   16.4434    5.9341   17.1095 H   0  0  0  0  0  0  0  0  0  0  0  0
   15.4125    8.3663   16.8707 H   0  0  0  0  0  0  0  0  0  0  0  0
   11.7733   10.4592   15.0618 H   0  0  0  0  0  0  0  0  0  0  0  0
   11.9342   11.6639   16.3662 H   0  0  0  0  0  0  0  0  0  0  0  0
   12.5208   13.0595   12.3516 H   0  0  0  0  0  0  0  0  0  0  0  0
   17.6182    5.6914   11.9170 H   0  0  0  0  0  0  0  0  0  0  0  0
   13.7223   12.8061   15.0640 H   0  0  0  0  0  0  0  0  0  0  0  0
   15.4159    5.6772   17.8666 H   0  0  0  0  0  0  0  0  0  0  0  0
   14.5550    6.0454   20.3168 H   0  0  0  0  0  0  0  0  0  0  0  0
  1 10  2  0
  1 14  1  0
  2  3  1  0
 15  2  1  0
  3 16  1  0
  3 31  2  0
  4 17  2  0
  4 18  1  0
  5  6  1  0
  5 18  2  0
  6 19  2  0
  6 26  1  0
  7  8  2  0
  7 23  1  0
  7 24  1  0
  8  9  1  0
  9 10  1  0
  9 21  2  0
 10 11  1  0
 11 12  2  0
 12 13  1  0
 13 14  2  0
 13 15  1  0
 15 20  1  0
 16 29  1  0
 17 19  1  0
 17 29  1  0
 18 25  1  0
 20 30  1  0
 20 33  2  0
 21 22  1  0
 22 23  2  0
 22 27  1  0
 23 28  1  0
 30 32  1  0
  1 34  1  0
  2 35  1  0
  4 36  1  0
  5 37  1  0
  8 38  1  0
 11 39  1  0
 12 40  1  0
 14 41  1  0
 15 42  1  1
 16 43  1  0
 16 44  1  0
 19 45  1  0
 21 46  1  0
 29 47  1  0
 30 48  1  0
 32 49  1  0
M  END
>  <filename_input>  (11) 
8EYE_X4I_docked.sdf

>  <pdb_id>  (11) 
8EYE_X4I

>  <pose_rank>  (11) 
10

>  <num_atoms_heavy>  (11) 
33

>  <num_torsions>  (11) 
7

>  <pose>  (11) 
[14.53042066257982, 7.793650221803148, 16.548301884477233, 2.1235273307022666, 1.4492118502635123, 0.16497901794014852, 0.1440202616430472, -0.842468060889555, -1.2069445291777, -0.9538912310641764, -1.6242478894788328, -3.1226741298188174, 1.611480583094647]

>  <energy>  (11) 
-483.44600065647785

>  <inter_energy>  (11) 
-560.0390101150482

>  <intra_energy>  (11) 
69.52211503624848

>  <rmsd>  (11) 
9.3017

>  <sdf_rank>  (11) 
0

$$$$

     RDKit          3D

 49 51  0  0  0  0  0  0  0  0999 V2000
   14.9924    7.7606   15.2189 C   0  0  0  0  0  0  0  0  0  0  0  0
   13.4512   12.4005   15.1761 N   0  0  0  0  0  0  0  0  0  0  0  0
   12.4989   12.4408   14.0610 C   0  0  0  0  0  0  0  0  0  0  0  0
   12.3144   11.4858   10.2359 C   0  0  0  0  0  0  0  0  0  0  0  0
   14.5017   10.9270    9.3406 C   0  0  0  0  0  0  0  0  0  0  0  0
   15.0734   11.9573   10.0590 C   0  0  0  0  0  0  0  0  0  0  0  0
   16.7022    5.5160   11.3298 C   0  0  0  0  0  0  0  0  0  0  0  0
   15.8896    6.5002   11.8365 C   0  0  0  0  0  0  0  0  0  0  0  0
   16.0859    6.8510   13.1699 C   0  0  0  0  0  0  0  0  0  0  0  0
   15.3335    7.9364   13.9091 C   0  0  0  0  0  0  0  0  0  0  0  0
   15.1288    9.1589   13.2468 C   0  0  0  0  0  0  0  0  0  0  0  0
   14.4934   10.2070   13.9314 C   0  0  0  0  0  0  0  0  0  0  0  0
   14.1323   10.0284   15.2670 C   0  0  0  0  0  0  0  0  0  0  0  0
   14.3500    8.8359   15.9198 C   0  0  0  0  0  0  0  0  0  0  0  0
   13.5160   11.2029   15.9956 C   0  0  2  0  0  0  0  0  0  0  0  0
   12.4758   13.7481   13.1800 C   0  0  0  0  0  0  0  0  0  0  0  0
   12.8842   12.5172   10.9547 C   0  0  0  0  0  0  0  0  0  0  0  0
   13.1295   10.6996    9.4513 C   0  0  0  0  0  0  0  0  0  0  0  0
   14.2813   12.7695   10.8521 C   0  0  0  0  0  0  0  0  0  0  0  0
   12.2338   10.9119   16.7207 C   0  0  0  0  0  0  0  0  0  0  0  0
   17.1008    6.2559   13.9428 C   0  0  0  0  0  0  0  0  0  0  0  0
   17.9011    5.2674   13.4058 C   0  0  0  0  0  0  0  0  0  0  0  0
   17.7005    4.9120   12.0910 C   0  0  0  0  0  0  0  0  0  0  0  0
   16.5296    5.1228   10.0448 F   0  0  0  0  0  0  0  0  0  0  0  0
   12.5795    9.7087    8.7372 F   0  0  0  0  0  0  0  0  0  0  0  0
   16.4195   12.1508    9.9426 F   0  0  0  0  0  0  0  0  0  0  0  0
   18.9142    4.6434   14.1205 F   0  0  0  0  0  0  0  0  0  0  0  0
   18.5156    3.9276   11.5595 F   0  0  0  0  0  0  0  0  0  0  0  0
   11.9996   13.3586   11.7916 N   0  0  0  0  0  0  0  0  0  0  0  0
   12.3949   10.0486   17.8698 N   0  0  0  0  0  0  0  0  0  0  0  0
   11.8175   11.5308   13.8096 O   0  0  0  0  0  0  0  0  0  0  0  0
   11.2273    9.7414   18.5766 O   0  0  0  0  0  0  0  0  0  0  0  0
   11.1832   11.3939   16.3947 O   0  0  0  0  0  0  0  0  0  0  0  0
   15.2066    6.8100   15.7293 H   0  0  0  0  0  0  0  0  0  0  0  0
   14.0621   13.2058   15.3741 H   0  0  0  0  0  0  0  0  0  0  0  0
   11.2323   11.2955   10.2883 H   0  0  0  0  0  0  0  0  0  0  0  0
   15.1203   10.2926    8.6887 H   0  0  0  0  0  0  0  0  0  0  0  0
   15.1208    6.9878   11.2191 H   0  0  0  0  0  0  0  0  0  0  0  0
   15.4616    9.2926   12.2070 H   0  0  0  0  0  0  0  0  0  0  0  0
   14.2827   11.1581   13.4206 H   0  0  0  0  0  0  0  0  0  0  0  0
   14.0352    8.7087   16.9661 H   0  0  0  0  0  0  0  0  0  0  0  0
   14.2260   11.4130   16.8090 H   0  0  0  0  0  0  0  0  0  0  0  0
   11.7871   14.4845   13.6197 H   0  0  0  0  0  0  0  0  0  0  0  0
   13.4780   14.1990   13.1320 H   0  0  0  0  0  0  0  0  0  0  0  0
   14.7311   13.6091   11.4024 H   0  0  0  0  0  0  0  0  0  0  0  0
   17.2573    6.5808   14.9820 H   0  0  0  0  0  0  0  0  0  0  0  0
   11.0834   13.6722   11.4408 H   0  0  0  0  0  0  0  0  0  0  0  0
   13.3152    9.6816   18.1512 H   0  0  0  0  0  0  0  0  0  0  0  0
   11.4080    9.7890   19.5488 H   0  0  0  0  0  0  0  0  0  0  0  0
  1 10  2  0
  1 14  1  0
  2  3  1  0
 15  2  1  0
  3 16  1  0
  3 31  2  0
  4 17  2  0
  4 18  1  0
  5  6  1  0
  5 18  2  0
  6 19  2  0
  6 26  1  0
  7  8  2  0
  7 23  1  0
  7 24  1  0
  8  9  1  0
  9 10  1  0
  9 21  2  0
 10 11  1  0
 11 12  2  0
 12 13  1  0
 13 14  2  0
 13 15  1  0
 15 20  1  0
 16 29  1  0
 17 19  1  0
 17 29  1  0
 18 25  1  0
 20 30  1  0
 20 33  2  0
 21 22  1  0
 22 23  2  0
 22 27  1  0
 23 28  1  0
 30 32  1  0
  1 34  1  0
  2 35  1  0
  4 36  1  0
  5 37  1  0
  8 38  1  0
 11 39  1  0
 12 40  1  0
 14 41  1  0
 15 42  1  1
 16 43  1  0
 16 44  1  0
 19 45  1  0
 21 46  1  0
 29 47  1  0
 30 48  1  0
 32 49  1  0
M  END
>  <filename_input>  (12) 
8EYE_X4I_docked.sdf

>  <pdb_id>  (12) 
8EYE_X4I

>  <pose_rank>  (12) 
11

>  <num_atoms_heavy>  (12) 
33

>  <num_torsions>  (12) 
7

>  <pose>  (12) 
[13.51595649908305, 11.202855130439575, 15.995610345037047, 2.164488701083861, 0.7623941794642605, 0.6411870758282336, 0.22991095046238905, 0.32349075246415016, -0.5667531169171285, 2.9927952969230565, 2.7094359563599943, 0.39131447513545126, -1.1777958602396437]

>  <energy>  (12) 
-322.7663954735691

>  <inter_energy>  (12) 
-425.98554826260875

>  <intra_energy>  (12) 
99.13777380382615

>  <rmsd>  (12) 
8.06315

>  <sdf_rank>  (12) 
0

$$$$

     RDKit          3D

 49 51  0  0  0  0  0  0  0  0999 V2000
   13.7271   10.3657   15.1397 C   0  0  0  0  0  0  0  0  0  0  0  0
   16.1559    6.9651   13.4749 N   0  0  0  0  0  0  0  0  0  0  0  0
   16.6326    6.7799   12.1000 C   0  0  0  0  0  0  0  0  0  0  0  0
   18.2038    3.7025   13.9955 C   0  0  0  0  0  0  0  0  0  0  0  0
   18.2035    4.2082   16.3709 C   0  0  0  0  0  0  0  0  0  0  0  0
   18.5292    5.5225   16.1043 C   0  0  0  0  0  0  0  0  0  0  0  0
   12.1021   12.2023   19.2072 C   0  0  0  0  0  0  0  0  0  0  0  0
   12.1695   11.1573   18.3189 C   0  0  0  0  0  0  0  0  0  0  0  0
   13.2751   11.1236   17.4727 C   0  0  0  0  0  0  0  0  0  0  0  0
   13.5659   10.0412   16.4556 C   0  0  0  0  0  0  0  0  0  0  0  0
   13.7957    8.7392   16.9321 C   0  0  0  0  0  0  0  0  0  0  0  0
   14.1340    7.7287   16.0182 C   0  0  0  0  0  0  0  0  0  0  0  0
   14.2886    8.0529   14.6702 C   0  0  0  0  0  0  0  0  0  0  0  0
   14.0807    9.3330   14.2078 C   0  0  0  0  0  0  0  0  0  0  0  0
   14.7249    6.9548   13.7247 C   0  0  2  0  0  0  0  0  0  0  0  0
   18.1929    6.7725   11.8731 C   0  0  0  0  0  0  0  0  0  0  0  0
   18.5302    5.0165   13.7269 C   0  0  0  0  0  0  0  0  0  0  0  0
   18.0331    3.3204   15.3081 C   0  0  0  0  0  0  0  0  0  0  0  0
   18.7137    5.9374   14.7967 C   0  0  0  0  0  0  0  0  0  0  0  0
   14.1877    5.5870   14.0321 C   0  0  0  0  0  0  0  0  0  0  0  0
   14.2949   12.0901   17.5599 C   0  0  0  0  0  0  0  0  0  0  0  0
   14.1981   13.1305   18.4622 C   0  0  0  0  0  0  0  0  0  0  0  0
   13.1000   13.1709   19.2916 C   0  0  0  0  0  0  0  0  0  0  0  0
   11.0310   12.2914   20.0320 F   0  0  0  0  0  0  0  0  0  0  0  0
   17.7344    2.0423   15.5759 F   0  0  0  0  0  0  0  0  0  0  0  0
   18.6782    6.3734   17.1611 F   0  0  0  0  0  0  0  0  0  0  0  0
   15.1700   14.1130   18.5905 F   0  0  0  0  0  0  0  0  0  0  0  0
   13.0183   14.2122   20.1999 F   0  0  0  0  0  0  0  0  0  0  0  0
   18.7152    5.4164   12.3139 N   0  0  0  0  0  0  0  0  0  0  0  0
   15.1783    4.6745   14.5590 N   0  0  0  0  0  0  0  0  0  0  0  0
   15.8931    6.6037   11.2182 O   0  0  0  0  0  0  0  0  0  0  0  0
   14.7290    3.3833   14.8557 O   0  0  0  0  0  0  0  0  0  0  0  0
   13.0296    5.3010   13.8925 O   0  0  0  0  0  0  0  0  0  0  0  0
   13.5882   11.4023   14.7988 H   0  0  0  0  0  0  0  0  0  0  0  0
   16.8229    7.0997   14.2481 H   0  0  0  0  0  0  0  0  0  0  0  0
   18.0825    2.9758   13.1787 H   0  0  0  0  0  0  0  0  0  0  0  0
   18.0798    3.8647   17.4085 H   0  0  0  0  0  0  0  0  0  0  0  0
   11.3881   10.3842   18.2777 H   0  0  0  0  0  0  0  0  0  0  0  0
   13.7116    8.5152   18.0057 H   0  0  0  0  0  0  0  0  0  0  0  0
   14.2756    6.6931   16.3611 H   0  0  0  0  0  0  0  0  0  0  0  0
   14.1844    9.5614   13.1368 H   0  0  0  0  0  0  0  0  0  0  0  0
   14.2351    7.2127   12.7742 H   0  0  0  0  0  0  0  0  0  0  0  0
   18.4177    6.9329   10.8084 H   0  0  0  0  0  0  0  0  0  0  0  0
   18.6709    7.5769   12.4515 H   0  0  0  0  0  0  0  0  0  0  0  0
   19.0017    6.9776   14.5845 H   0  0  0  0  0  0  0  0  0  0  0  0
   15.1751   12.0158   16.9044 H   0  0  0  0  0  0  0  0  0  0  0  0
   19.1867    4.7902   11.6458 H   0  0  0  0  0  0  0  0  0  0  0  0
   16.1572    4.9586   14.7071 H   0  0  0  0  0  0  0  0  0  0  0  0
   14.6880    3.2656   15.8378 H   0  0  0  0  0  0  0  0  0  0  0  0
  1 10  2  0
  1 14  1  0
  2  3  1  0
 15  2  1  0
  3 16  1  0
  3 31  2  0
  4 17  2  0
  4 18  1  0
  5  6  1  0
  5 18  2  0
  6 19  2  0
  6 26  1  0
  7  8  2  0
  7 23  1  0
  7 24  1  0
  8  9  1  0
  9 10  1  0
  9 21  2  0
 10 11  1  0
 11 12  2  0
 12 13  1  0
 13 14  2  0
 13 15  1  0
 15 20  1  0
 16 29  1  0
 17 19  1  0
 17 29  1  0
 18 25  1  0
 20 30  1  0
 20 33  2  0
 21 22  1  0
 22 23  2  0
 22 27  1  0
 23 28  1  0
 30 32  1  0
  1 34  1  0
  2 35  1  0
  4 36  1  0
  5 37  1  0
  8 38  1  0
 11 39  1  0
 12 40  1  0
 14 41  1  0
 15 42  1  6
 16 43  1  0
 16 44  1  0
 19 45  1  0
 21 46  1  0
 29 47  1  0
 30 48  1  0
 32 49  1  0
M  END
>  <filename_input>  (13) 
8EYE_X4I_docked.sdf

>  <pdb_id>  (13) 
8EYE_X4I

>  <pose_rank>  (13) 
12

>  <num_atoms_heavy>  (13) 
33

>  <num_torsions>  (13) 
7

>  <pose>  (13) 
[14.724934028792958, 6.954824085087388, 13.724714901951563, -0.9991924866313636, 0.7319181352444214, 1.1511033905566885, -1.4102778006516399, -0.020597097531798555, -3.649248562158275, 5.660408505770792, 1.3944371388480794, 0.5174972959539988, 5.160642069504199]

>  <energy>  (13) 
-640.2134603839055

>  <inter_energy>  (13) 
-670.9302711044759

>  <intra_energy>  (13) 
46.79499355832354

>  <rmsd>  (13) 
3.96795

>  <sdf_rank>  (13) 
0

$$$$

     RDKit          3D

 49 51  0  0  0  0  0  0  0  0999 V2000
   15.6168    7.0291   13.8455 C   0  0  0  0  0  0  0  0  0  0  0  0
   19.3728    4.9383   12.7311 N   0  0  0  0  0  0  0  0  0  0  0  0
   20.7471    5.3659   12.4480 C   0  0  0  0  0  0  0  0  0  0  0  0
   19.3507    2.3638   14.1684 C   0  0  0  0  0  0  0  0  0  0  0  0
   17.5283    3.0714   15.6094 C   0  0  0  0  0  0  0  0  0  0  0  0
   18.2734    4.1483   16.0447 C   0  0  0  0  0  0  0  0  0  0  0  0
   13.0529   11.0633   13.3104 C   0  0  0  0  0  0  0  0  0  0  0  0
   14.0156   10.2427   12.7762 C   0  0  0  0  0  0  0  0  0  0  0  0
   14.5527    9.2738   13.6202 C   0  0  0  0  0  0  0  0  0  0  0  0
   15.5873    8.2431   13.2225 C   0  0  0  0  0  0  0  0  0  0  0  0
   16.4060    8.5296   12.1168 C   0  0  0  0  0  0  0  0  0  0  0  0
   17.3286    7.5643   11.6834 C   0  0  0  0  0  0  0  0  0  0  0  0
   17.3708    6.3260   12.3243 C   0  0  0  0  0  0  0  0  0  0  0  0
   16.5552    6.0404   13.3962 C   0  0  0  0  0  0  0  0  0  0  0  0
   18.3257    5.2832   11.7850 C   0  0  2  0  0  0  0  0  0  0  0  0
   21.8591    4.9511   13.4860 C   0  0  0  0  0  0  0  0  0  0  0  0
   20.0978    3.4400   14.6031 C   0  0  0  0  0  0  0  0  0  0  0  0
   18.0763    2.2016   14.6659 C   0  0  0  0  0  0  0  0  0  0  0  0
   19.5596    4.3364   15.5690 C   0  0  0  0  0  0  0  0  0  0  0  0
   17.6815    4.0838   11.1520 C   0  0  0  0  0  0  0  0  0  0  0  0
   14.0939    9.1166   14.9416 C   0  0  0  0  0  0  0  0  0  0  0  0
   13.1256    9.9585   15.4513 C   0  0  0  0  0  0  0  0  0  0  0  0
   12.6019   10.9239   14.6212 C   0  0  0  0  0  0  0  0  0  0  0  0
   12.5209   12.0384   12.5346 F   0  0  0  0  0  0  0  0  0  0  0  0
   17.3534    1.1488   14.2617 F   0  0  0  0  0  0  0  0  0  0  0  0
   17.7097    4.9909   16.9586 F   0  0  0  0  0  0  0  0  0  0  0  0
   12.6374    9.8531   16.7463 F   0  0  0  0  0  0  0  0  0  0  0  0
   11.6240   11.7555   15.1389 F   0  0  0  0  0  0  0  0  0  0  0  0
   21.4672    3.6034   14.0658 N   0  0  0  0  0  0  0  0  0  0  0  0
   16.3903    3.7502   11.7115 N   0  0  0  0  0  0  0  0  0  0  0  0
   21.0147    5.9506   11.4774 O   0  0  0  0  0  0  0  0  0  0  0  0
   15.7507    2.6349   11.1599 O   0  0  0  0  0  0  0  0  0  0  0  0
   18.1809    3.4906   10.2349 O   0  0  0  0  0  0  0  0  0  0  0  0
   14.9322    6.8119   14.6787 H   0  0  0  0  0  0  0  0  0  0  0  0
   19.1544    4.4039   13.5841 H   0  0  0  0  0  0  0  0  0  0  0  0
   19.7642    1.6506   13.4401 H   0  0  0  0  0  0  0  0  0  0  0  0
   16.5148    2.9008   16.0013 H   0  0  0  0  0  0  0  0  0  0  0  0
   14.3466   10.3457   11.7323 H   0  0  0  0  0  0  0  0  0  0  0  0
   16.3251    9.4964   11.5983 H   0  0  0  0  0  0  0  0  0  0  0  0
   18.0105    7.7819   10.8481 H   0  0  0  0  0  0  0  0  0  0  0  0
   16.6221    5.0660   13.9022 H   0  0  0  0  0  0  0  0  0  0  0  0
   18.8162    5.7851   10.9380 H   0  0  0  0  0  0  0  0  0  0  0  0
   22.8331    4.8731   12.9809 H   0  0  0  0  0  0  0  0  0  0  0  0
   21.9433    5.7045   14.2831 H   0  0  0  0  0  0  0  0  0  0  0  0
   20.1652    5.1778   15.9370 H   0  0  0  0  0  0  0  0  0  0  0  0
   14.5098    8.3174   15.5727 H   0  0  0  0  0  0  0  0  0  0  0  0
   22.1380    2.8221   14.0846 H   0  0  0  0  0  0  0  0  0  0  0  0
   15.9665    4.3013   12.4715 H   0  0  0  0  0  0  0  0  0  0  0  0
   15.4168    2.0526   11.8875 H   0  0  0  0  0  0  0  0  0  0  0  0
  1 10  2  0
  1 14  1  0
  2  3  1  0
 15  2  1  0
  3 16  1  0
  3 31  2  0
  4 17  2  0
  4 18  1  0
  5  6  1  0
  5 18  2  0
  6 19  2  0
  6 26  1  0
  7  8  2  0
  7 23  1  0
  7 24  1  0
  8  9  1  0
  9 10  1  0
  9 21  2  0
 10 11  1  0
 11 12  2  0
 12 13  1  0
 13 14  2  0
 13 15  1  0
 15 20  1  0
 16 29  1  0
 17 19  1  0
 17 29  1  0
 18 25  1  0
 20 30  1  0
 20 33  2  0
 21 22  1  0
 22 23  2  0
 22 27  1  0
 23 28  1  0
 30 32  1  0
  1 34  1  0
  2 35  1  0
  4 36  1  0
  5 37  1  0
  8 38  1  0
 11 39  1  0
 12 40  1  0
 14 41  1  0
 15 42  1  6
 16 43  1  0
 16 44  1  0
 19 45  1  0
 21 46  1  0
 29 47  1  0
 30 48  1  0
 32 49  1  0
M  END
>  <filename_input>  (14) 
8EYE_X4I_docked.sdf

>  <pdb_id>  (14) 
8EYE_X4I

>  <pose_rank>  (14) 
13

>  <num_atoms_heavy>  (14) 
33

>  <num_torsions>  (14) 
7

>  <pose>  (14) 
[18.32573479809382, 5.283220958188303, 11.785010803572984, -1.074719451941092, -0.05827833156889879, 0.4914300923428324, 2.2952458659878614, 1.490808132508392, -2.28726881067535, -0.15885930736588244, 0.6173196353771833, 0.6968609672151107, -1.3299658638036855]

>  <energy>  (14) 
-361.2748629518875

>  <inter_energy>  (14) 
-454.86447936274686

>  <intra_energy>  (14) 
104.56606467320566

>  <rmsd>  (14) 
6.17977

>  <sdf_rank>  (14) 
0

$$$$

     RDKit          3D

 49 51  0  0  0  0  0  0  0  0999 V2000
   15.7229    7.3719   13.1577 C   0  0  0  0  0  0  0  0  0  0  0  0
   17.2935    3.5112   13.9561 N   0  0  0  0  0  0  0  0  0  0  0  0
   16.8787    2.1230   13.7264 C   0  0  0  0  0  0  0  0  0  0  0  0
   20.8744    1.9119   11.0819 C   0  0  0  0  0  0  0  0  0  0  0  0
   21.1620    4.0839   10.0343 C   0  0  0  0  0  0  0  0  0  0  0  0
   20.0571    4.5680   10.7045 C   0  0  0  0  0  0  0  0  0  0  0  0
   13.0952   11.2785   14.2470 C   0  0  0  0  0  0  0  0  0  0  0  0
   13.5420   10.0547   14.6808 C   0  0  0  0  0  0  0  0  0  0  0  0
   14.2078    9.2633   13.7481 C   0  0  0  0  0  0  0  0  0  0  0  0
   14.8174    7.9065   14.0277 C   0  0  0  0  0  0  0  0  0  0  0  0
   14.5245    7.2983   15.2603 C   0  0  0  0  0  0  0  0  0  0  0  0
   15.1289    6.0711   15.5756 C   0  0  0  0  0  0  0  0  0  0  0  0
   16.0465    5.5146   14.6843 C   0  0  0  0  0  0  0  0  0  0  0  0
   16.3460    6.1210   13.4850 C   0  0  0  0  0  0  0  0  0  0  0  0
   16.7337    4.2284   15.0886 C   0  0  2  0  0  0  0  0  0  0  0  0
   17.5269    1.3705   12.5018 C   0  0  0  0  0  0  0  0  0  0  0  0
   19.7686    2.3940   11.7527 C   0  0  0  0  0  0  0  0  0  0  0  0
   21.5611    2.7636   10.2446 C   0  0  0  0  0  0  0  0  0  0  0  0
   19.3415    3.7364   11.5485 C   0  0  0  0  0  0  0  0  0  0  0  0
   17.6833    4.3402   16.2463 C   0  0  0  0  0  0  0  0  0  0  0  0
   14.4499    9.7200   12.4387 C   0  0  0  0  0  0  0  0  0  0  0  0
   13.9866   10.9551   12.0312 C   0  0  0  0  0  0  0  0  0  0  0  0
   13.3184   11.7335   12.9493 C   0  0  0  0  0  0  0  0  0  0  0  0
   12.4182   12.0716   15.1121 F   0  0  0  0  0  0  0  0  0  0  0  0
   22.6241    2.2961    9.5769 F   0  0  0  0  0  0  0  0  0  0  0  0
   19.6950    5.8665   10.4905 F   0  0  0  0  0  0  0  0  0  0  0  0
   14.1924   11.4558   10.7531 F   0  0  0  0  0  0  0  0  0  0  0  0
   12.8677   12.9744   12.5333 F   0  0  0  0  0  0  0  0  0  0  0  0
   19.0353    1.4702   12.6469 N   0  0  0  0  0  0  0  0  0  0  0  0
   17.8504    3.1089   16.9862 N   0  0  0  0  0  0  0  0  0  0  0  0
   16.1344    1.5841   14.4413 O   0  0  0  0  0  0  0  0  0  0  0  0
   18.7211    3.1622   18.0801 O   0  0  0  0  0  0  0  0  0  0  0  0
   18.2790    5.3521   16.4982 O   0  0  0  0  0  0  0  0  0  0  0  0
   15.9712    7.8915   12.2204 H   0  0  0  0  0  0  0  0  0  0  0  0
   17.9685    3.9684   13.3267 H   0  0  0  0  0  0  0  0  0  0  0  0
   21.2005    0.8695   11.2131 H   0  0  0  0  0  0  0  0  0  0  0  0
   21.7214    4.7311    9.3427 H   0  0  0  0  0  0  0  0  0  0  0  0
   13.3817    9.7157   15.7149 H   0  0  0  0  0  0  0  0  0  0  0  0
   13.8315    7.7769   15.9679 H   0  0  0  0  0  0  0  0  0  0  0  0
   14.8819    5.5542   16.5147 H   0  0  0  0  0  0  0  0  0  0  0  0
   17.0544    5.6524   12.7861 H   0  0  0  0  0  0  0  0  0  0  0  0
   15.9191    3.6060   15.4872 H   0  0  0  0  0  0  0  0  0  0  0  0
   17.2189    0.3145   12.5049 H   0  0  0  0  0  0  0  0  0  0  0  0
   17.1996    1.8224   11.5539 H   0  0  0  0  0  0  0  0  0  0  0  0
   18.4437    4.1125   12.0608 H   0  0  0  0  0  0  0  0  0  0  0  0
   15.0123    9.0884   11.7353 H   0  0  0  0  0  0  0  0  0  0  0  0
   19.5358    0.9087   13.3505 H   0  0  0  0  0  0  0  0  0  0  0  0
   17.3575    2.2435   16.7234 H   0  0  0  0  0  0  0  0  0  0  0  0
   18.1980    3.1302   18.9200 H   0  0  0  0  0  0  0  0  0  0  0  0
  1 10  2  0
  1 14  1  0
  2  3  1  0
 15  2  1  0
  3 16  1  0
  3 31  2  0
  4 17  2  0
  4 18  1  0
  5  6  1  0
  5 18  2  0
  6 19  2  0
  6 26  1  0
  7  8  2  0
  7 23  1  0
  7 24  1  0
  8  9  1  0
  9 10  1  0
  9 21  2  0
 10 11  1  0
 11 12  2  0
 12 13  1  0
 13 14  2  0
 13 15  1  0
 15 20  1  0
 16 29  1  0
 17 19  1  0
 17 29  1  0
 18 25  1  0
 20 30  1  0
 20 33  2  0
 21 22  1  0
 22 23  2  0
 22 27  1  0
 23 28  1  0
 30 32  1  0
  1 34  1  0
  2 35  1  0
  4 36  1  0
  5 37  1  0
  8 38  1  0
 11 39  1  0
 12 40  1  0
 14 41  1  0
 15 42  1  1
 16 43  1  0
 16 44  1  0
 19 45  1  0
 21 46  1  0
 29 47  1  0
 30 48  1  0
 32 49  1  0
M  END
>  <filename_input>  (15) 
8EYE_X4I_docked.sdf

>  <pdb_id>  (15) 
8EYE_X4I

>  <pose_rank>  (15) 
14

>  <num_atoms_heavy>  (15) 
33

>  <num_torsions>  (15) 
7

>  <pose>  (15) 
[16.733741576966665, 4.228407527952064, 15.088621552326003, -1.5806128816205431, 2.480933487271156, 1.5389134951555818, 3.07770595497041, 1.2624431677782908, 0.9130211231417779, -0.4014980197360901, 0.9900974079769898, 6.019041586354626, -5.854037095977289]

>  <energy>  (15) 
-500.9623761022484

>  <inter_energy>  (15) 
-501.7910934433645

>  <intra_energy>  (15) 
12.90630992944464

>  <rmsd>  (15) 
7.72543

>  <sdf_rank>  (15) 
0

$$$$

     RDKit          3D

 49 51  0  0  0  0  0  0  0  0999 V2000
   15.0145    6.9557   15.1024 C   0  0  0  0  0  0  0  0  0  0  0  0
   17.9278    4.1645   13.5308 N   0  0  0  0  0  0  0  0  0  0  0  0
   19.3884    4.2961   13.4992 C   0  0  0  0  0  0  0  0  0  0  0  0
   21.3237    3.0835   17.7492 C   0  0  0  0  0  0  0  0  0  0  0  0
   20.7027    1.1991   19.1497 C   0  0  0  0  0  0  0  0  0  0  0  0
   19.5439    1.0229   18.4213 C   0  0  0  0  0  0  0  0  0  0  0  0
   13.1156   10.5749   16.7375 C   0  0  0  0  0  0  0  0  0  0  0  0
   13.8389    9.4555   16.4069 C   0  0  0  0  0  0  0  0  0  0  0  0
   14.1943    9.3110   15.0681 C   0  0  0  0  0  0  0  0  0  0  0  0
   15.0250    8.1805   14.5002 C   0  0  0  0  0  0  0  0  0  0  0  0
   15.6816    8.4003   13.2773 C   0  0  0  0  0  0  0  0  0  0  0  0
   16.4044    7.3481   12.6930 C   0  0  0  0  0  0  0  0  0  0  0  0
   16.4064    6.0974   13.3106 C   0  0  0  0  0  0  0  0  0  0  0  0
   15.7475    5.8789   14.4996 C   0  0  0  0  0  0  0  0  0  0  0  0
   17.1348    4.9673   12.6160 C   0  0  2  0  0  0  0  0  0  0  0  0
   20.2152    3.3902   14.4901 C   0  0  0  0  0  0  0  0  0  0  0  0
   20.1648    2.9093   17.0198 C   0  0  0  0  0  0  0  0  0  0  0  0
   21.5823    2.2216   18.7924 C   0  0  0  0  0  0  0  0  0  0  0  0
   19.2514    1.8755   17.3709 C   0  0  0  0  0  0  0  0  0  0  0  0
   16.3025    4.1443   11.6756 C   0  0  0  0  0  0  0  0  0  0  0  0
   13.8661   10.2913   14.1125 C   0  0  0  0  0  0  0  0  0  0  0  0
   13.1362   11.4057   14.4751 C   0  0  0  0  0  0  0  0  0  0  0  0
   12.7748   11.5439   15.7963 C   0  0  0  0  0  0  0  0  0  0  0  0
   12.7243   10.7443   18.0235 F   0  0  0  0  0  0  0  0  0  0  0  0
   22.6963    2.3971   19.5153 F   0  0  0  0  0  0  0  0  0  0  0  0
   18.7065    0.0078   18.7838 F   0  0  0  0  0  0  0  0  0  0  0  0
   12.7812   12.4022   13.5765 F   0  0  0  0  0  0  0  0  0  0  0  0
   12.0526   12.6702   16.1508 F   0  0  0  0  0  0  0  0  0  0  0  0
   19.8940    3.8428   15.9036 N   0  0  0  0  0  0  0  0  0  0  0  0
   15.6981    2.9842   12.2924 N   0  0  0  0  0  0  0  0  0  0  0  0
   19.9191    5.0080   12.7461 O   0  0  0  0  0  0  0  0  0  0  0  0
   14.9170    2.1798   11.4557 O   0  0  0  0  0  0  0  0  0  0  0  0
   16.1244    4.4551   10.5293 O   0  0  0  0  0  0  0  0  0  0  0  0
   14.4532    6.7964   16.0349 H   0  0  0  0  0  0  0  0  0  0  0  0
   17.4733    3.5154   14.1889 H   0  0  0  0  0  0  0  0  0  0  0  0
   22.0260    3.8935   17.5027 H   0  0  0  0  0  0  0  0  0  0  0  0
   20.9303    0.5414   20.0016 H   0  0  0  0  0  0  0  0  0  0  0  0
   14.1239    8.7090   17.1629 H   0  0  0  0  0  0  0  0  0  0  0  0
   15.6301    9.3826   12.7851 H   0  0  0  0  0  0  0  0  0  0  0  0
   16.9627    7.5082   11.7588 H   0  0  0  0  0  0  0  0  0  0  0  0
   15.7824    4.8909   14.9818 H   0  0  0  0  0  0  0  0  0  0  0  0
   17.8428    5.4789   11.9475 H   0  0  0  0  0  0  0  0  0  0  0  0
   19.9304    2.3356   14.3601 H   0  0  0  0  0  0  0  0  0  0  0  0
   21.2929    3.4834   14.2904 H   0  0  0  0  0  0  0  0  0  0  0  0
   18.3142    1.7544   16.8080 H   0  0  0  0  0  0  0  0  0  0  0  0
   14.1936   10.1685   13.0696 H   0  0  0  0  0  0  0  0  0  0  0  0
   19.4974    4.7766   16.0812 H   0  0  0  0  0  0  0  0  0  0  0  0
   15.8346    2.7632   13.2891 H   0  0  0  0  0  0  0  0  0  0  0  0
   14.3440    1.5895   12.0064 H   0  0  0  0  0  0  0  0  0  0  0  0
  1 10  2  0
  1 14  1  0
  2  3  1  0
 15  2  1  0
  3 16  1  0
  3 31  2  0
  4 17  2  0
  4 18  1  0
  5  6  1  0
  5 18  2  0
  6 19  2  0
  6 26  1  0
  7  8  2  0
  7 23  1  0
  7 24  1  0
  8  9  1  0
  9 10  1  0
  9 21  2  0
 10 11  1  0
 11 12  2  0
 12 13  1  0
 13 14  2  0
 13 15  1  0
 15 20  1  0
 16 29  1  0
 17 19  1  0
 17 29  1  0
 18 25  1  0
 20 30  1  0
 20 33  2  0
 21 22  1  0
 22 23  2  0
 22 27  1  0
 23 28  1  0
 30 32  1  0
  1 34  1  0
  2 35  1  0
  4 36  1  0
  5 37  1  0
  8 38  1  0
 11 39  1  0
 12 40  1  0
 14 41  1  0
 15 42  1  6
 16 43  1  0
 16 44  1  0
 19 45  1  0
 21 46  1  0
 29 47  1  0
 30 48  1  0
 32 49  1  0
M  END
>  <filename_input>  (16) 
8EYE_X4I_docked.sdf

>  <pdb_id>  (16) 
8EYE_X4I

>  <pose_rank>  (16) 
15

>  <num_atoms_heavy>  (16) 
33

>  <num_torsions>  (16) 
7

>  <pose>  (16) 
[17.134801444311186, 4.967270189716939, 12.615956907332631, 5.263579739710535, 0.3658673906017361, -1.1005132287422088, 2.6670628147716853, -1.6745205027244192, -3.3710765854585176, 6.172564283482919, 5.1728355550044, -14.469795648017076, -14.410156078870171]

>  <energy>  (16) 
-472.68644834230446

>  <inter_energy>  (16) 
-469.4912995202695

>  <intra_energy>  (16) 
0.10606335285786543

>  <rmsd>  (16) 
6.54732

>  <sdf_rank>  (16) 
0

$$$$

     RDKit          3D

 49 51  0  0  0  0  0  0  0  0999 V2000
   14.2292    9.1698   15.8017 C   0  0  0  0  0  0  0  0  0  0  0  0
   16.1037    4.7550   16.1956 N   0  0  0  0  0  0  0  0  0  0  0  0
   15.8850    3.3871   15.7130 C   0  0  0  0  0  0  0  0  0  0  0  0
   16.7383    3.9358   12.6946 C   0  0  0  0  0  0  0  0  0  0  0  0
   17.6267    4.9042   10.6523 C   0  0  0  0  0  0  0  0  0  0  0  0
   18.8764    5.0062   11.2289 C   0  0  0  0  0  0  0  0  0  0  0  0
   13.7657   11.6240   11.6513 C   0  0  0  0  0  0  0  0  0  0  0  0
   14.1818   10.4543   12.2380 C   0  0  0  0  0  0  0  0  0  0  0  0
   13.9723   10.3311   13.6093 C   0  0  0  0  0  0  0  0  0  0  0  0
   14.3129    9.1131   14.4407 C   0  0  0  0  0  0  0  0  0  0  0  0
   14.5772    7.9106   13.7631 C   0  0  0  0  0  0  0  0  0  0  0  0
   14.8299    6.7488   14.5097 C   0  0  0  0  0  0  0  0  0  0  0  0
   14.7570    6.8041   15.9016 C   0  0  0  0  0  0  0  0  0  0  0  0
   14.4800    7.9793   16.5633 C   0  0  0  0  0  0  0  0  0  0  0  0
   14.9628    5.5178   16.6718 C   0  0  2  0  0  0  0  0  0  0  0  0
   17.1514    2.5831   15.2276 C   0  0  0  0  0  0  0  0  0  0  0  0
   17.9873    4.0376   13.2733 C   0  0  0  0  0  0  0  0  0  0  0  0
   16.5782    4.3572   11.3927 C   0  0  0  0  0  0  0  0  0  0  0  0
   19.0694    4.5974   12.5372 C   0  0  0  0  0  0  0  0  0  0  0  0
   14.9196    5.6467   18.1670 C   0  0  0  0  0  0  0  0  0  0  0  0
   13.3224   11.3399   14.3452 C   0  0  0  0  0  0  0  0  0  0  0  0
   12.9169   12.5061   13.7275 C   0  0  0  0  0  0  0  0  0  0  0  0
   13.1336   12.6335   12.3740 C   0  0  0  0  0  0  0  0  0  0  0  0
   13.9732   11.7997   10.3240 F   0  0  0  0  0  0  0  0  0  0  0  0
   15.3643    4.2779   10.8319 F   0  0  0  0  0  0  0  0  0  0  0  0
   19.8877    5.5336   10.4791 F   0  0  0  0  0  0  0  0  0  0  0  0
   12.2750   13.5354   14.4022 F   0  0  0  0  0  0  0  0  0  0  0  0
   12.7132   13.8022   11.7627 F   0  0  0  0  0  0  0  0  0  0  0  0
   18.1482    3.5859   14.6735 N   0  0  0  0  0  0  0  0  0  0  0  0
   13.6122    5.9808   18.6874 N   0  0  0  0  0  0  0  0  0  0  0  0
   14.8281    2.8990   15.7262 O   0  0  0  0  0  0  0  0  0  0  0  0
   13.5203    6.1191   20.0766 O   0  0  0  0  0  0  0  0  0  0  0  0
   15.8784    5.4440   18.8612 O   0  0  0  0  0  0  0  0  0  0  0  0
   13.9735   10.1128   16.3070 H   0  0  0  0  0  0  0  0  0  0  0  0
   17.0479    5.1666   16.1969 H   0  0  0  0  0  0  0  0  0  0  0  0
   15.8886    3.5268   13.2609 H   0  0  0  0  0  0  0  0  0  0  0  0
   17.4593    5.2499    9.6215 H   0  0  0  0  0  0  0  0  0  0  0  0
   14.6577    9.6533   11.6532 H   0  0  0  0  0  0  0  0  0  0  0  0
   14.5861    7.8801   12.6636 H   0  0  0  0  0  0  0  0  0  0  0  0
   15.0824    5.8058   14.0028 H   0  0  0  0  0  0  0  0  0  0  0  0
   14.4514    8.0056   17.6626 H   0  0  0  0  0  0  0  0  0  0  0  0
   14.0659    4.9241   16.4417 H   0  0  0  0  0  0  0  0  0  0  0  0
   17.5973    2.0395   16.0736 H   0  0  0  0  0  0  0  0  0  0  0  0
   16.8714    1.8506   14.4562 H   0  0  0  0  0  0  0  0  0  0  0  0
   20.0579    4.7050   13.0075 H   0  0  0  0  0  0  0  0  0  0  0  0
   13.1364   11.1980   15.4200 H   0  0  0  0  0  0  0  0  0  0  0  0
   18.9175    3.9430   15.2579 H   0  0  0  0  0  0  0  0  0  0  0  0
   12.7967    6.1093   18.0715 H   0  0  0  0  0  0  0  0  0  0  0  0
   14.0116    5.3798   20.5150 H   0  0  0  0  0  0  0  0  0  0  0  0
  1 10  2  0
  1 14  1  0
  2  3  1  0
 15  2  1  0
  3 16  1  0
  3 31  2  0
  4 17  2  0
  4 18  1  0
  5  6  1  0
  5 18  2  0
  6 19  2  0
  6 26  1  0
  7  8  2  0
  7 23  1  0
  7 24  1  0
  8  9  1  0
  9 10  1  0
  9 21  2  0
 10 11  1  0
 11 12  2  0
 12 13  1  0
 13 14  2  0
 13 15  1  0
 15 20  1  0
 16 29  1  0
 17 19  1  0
 17 29  1  0
 18 25  1  0
 20 30  1  0
 20 33  2  0
 21 22  1  0
 22 23  2  0
 22 27  1  0
 23 28  1  0
 30 32  1  0
  1 34  1  0
  2 35  1  0
  4 36  1  0
  5 37  1  0
  8 38  1  0
 11 39  1  0
 12 40  1  0
 14 41  1  0
 15 42  1  6
 16 43  1  0
 16 44  1  0
 19 45  1  0
 21 46  1  0
 29 47  1  0
 30 48  1  0
 32 49  1  0
M  END
>  <filename_input>  (17) 
8EYE_X4I_docked.sdf

>  <pdb_id>  (17) 
8EYE_X4I

>  <pose_rank>  (17) 
16

>  <num_atoms_heavy>  (17) 
33

>  <num_torsions>  (17) 
7

>  <pose>  (17) 
[14.962841299229053, 5.517808727246263, 16.671788227315222, -1.6794892486083057, 2.0912228050866246, 0.730463193788154, 1.0771620001149311, 0.821868131103919, -0.5799524671382212, -0.3587401617028518, -0.48388406912987053, 0.1294508567134974, -3.179766796449]

>  <energy>  (17) 
-519.4800356521672

>  <inter_energy>  (17) 
-544.2921356712968

>  <intra_energy>  (17) 
25.24914678953141

>  <rmsd>  (17) 
6.80688

>  <sdf_rank>  (17) 
0

$$$$

     RDKit          3D

 49 51  0  0  0  0  0  0  0  0999 V2000
   15.8527   14.8317   20.2885 C   0  0  0  0  0  0  0  0  0  0  0  0
   14.0164   11.1791   17.7755 N   0  0  0  0  0  0  0  0  0  0  0  0
   13.3255   10.6845   16.5797 C   0  0  0  0  0  0  0  0  0  0  0  0
   15.9784    8.9988   13.0036 C   0  0  0  0  0  0  0  0  0  0  0  0
   16.5816    6.7044   12.4841 C   0  0  0  0  0  0  0  0  0  0  0  0
   15.5568    6.2403   13.2833 C   0  0  0  0  0  0  0  0  0  0  0  0
   20.1286   16.8582   19.7484 C   0  0  0  0  0  0  0  0  0  0  0  0
   19.2850   15.8002   19.5150 C   0  0  0  0  0  0  0  0  0  0  0  0
   17.9190   16.0539   19.6118 C   0  0  0  0  0  0  0  0  0  0  0  0
   16.8210   15.0456   19.3507 C   0  0  0  0  0  0  0  0  0  0  0  0
   16.7629   14.4556   18.0765 C   0  0  0  0  0  0  0  0  0  0  0  0
   15.7159   13.5675   17.7836 C   0  0  0  0  0  0  0  0  0  0  0  0
   14.7299   13.3365   18.7429 C   0  0  0  0  0  0  0  0  0  0  0  0
   14.7786   13.9294   19.9846 C   0  0  0  0  0  0  0  0  0  0  0  0
   13.5771   12.4307   18.3678 C   0  0  2  0  0  0  0  0  0  0  0  0
   13.8153    9.3106   15.9810 C   0  0  0  0  0  0  0  0  0  0  0  0
   14.9532    8.5366   13.8040 C   0  0  0  0  0  0  0  0  0  0  0  0
   16.7679    8.0803   12.3470 C   0  0  0  0  0  0  0  0  0  0  0  0
   14.7491    7.1367   13.9616 C   0  0  0  0  0  0  0  0  0  0  0  0
   12.5284   12.2483   19.4266 C   0  0  0  0  0  0  0  0  0  0  0  0
   17.4309   17.3448   19.8892 C   0  0  0  0  0  0  0  0  0  0  0  0
   18.3043   18.3886   20.1211 C   0  0  0  0  0  0  0  0  0  0  0  0
   19.6550   18.1363   20.0367 C   0  0  0  0  0  0  0  0  0  0  0  0
   21.4666   16.6524   19.6919 F   0  0  0  0  0  0  0  0  0  0  0  0
   17.7758    8.5225   11.5834 F   0  0  0  0  0  0  0  0  0  0  0  0
   15.3883    4.8901   13.3908 F   0  0  0  0  0  0  0  0  0  0  0  0
   17.8811   19.6804   20.4021 F   0  0  0  0  0  0  0  0  0  0  0  0
   20.5215   19.1923   20.2603 F   0  0  0  0  0  0  0  0  0  0  0  0
   14.1131    9.5309   14.5083 N   0  0  0  0  0  0  0  0  0  0  0  0
   11.4832   11.3183   19.0603 N   0  0  0  0  0  0  0  0  0  0  0  0
   12.4258   11.2594   16.1154 O   0  0  0  0  0  0  0  0  0  0  0  0
   10.4770   11.1182   20.0115 O   0  0  0  0  0  0  0  0  0  0  0  0
   12.5862   12.7949   20.4945 O   0  0  0  0  0  0  0  0  0  0  0  0
   15.8949   15.3426   21.2617 H   0  0  0  0  0  0  0  0  0  0  0  0
   14.7979   10.6493   18.1871 H   0  0  0  0  0  0  0  0  0  0  0  0
   16.1612   10.0778   12.8924 H   0  0  0  0  0  0  0  0  0  0  0  0
   17.2435    5.9981   11.9615 H   0  0  0  0  0  0  0  0  0  0  0  0
   19.6694   14.8007   19.2638 H   0  0  0  0  0  0  0  0  0  0  0  0
   17.5270   14.6863   17.3195 H   0  0  0  0  0  0  0  0  0  0  0  0
   15.6734   13.0596   16.8087 H   0  0  0  0  0  0  0  0  0  0  0  0
   14.0034   13.7143   20.7348 H   0  0  0  0  0  0  0  0  0  0  0  0
   13.0484   12.9865   17.5793 H   0  0  0  0  0  0  0  0  0  0  0  0
   14.7251    8.9777   16.5019 H   0  0  0  0  0  0  0  0  0  0  0  0
   13.0432    8.5374   16.1073 H   0  0  0  0  0  0  0  0  0  0  0  0
   13.9504    6.7676   14.6218 H   0  0  0  0  0  0  0  0  0  0  0  0
   16.3460   17.5232   19.9214 H   0  0  0  0  0  0  0  0  0  0  0  0
   13.7395   10.3523   14.0116 H   0  0  0  0  0  0  0  0  0  0  0  0
   11.4799   10.8318   18.1524 H   0  0  0  0  0  0  0  0  0  0  0  0
   10.8620   11.1948   20.9203 H   0  0  0  0  0  0  0  0  0  0  0  0
  1 10  2  0
  1 14  1  0
  2  3  1  0
 15  2  1  0
  3 16  1  0
  3 31  2  0
  4 17  2  0
  4 18  1  0
  5  6  1  0
  5 18  2  0
  6 19  2  0
  6 26  1  0
  7  8  2  0
  7 23  1  0
  7 24  1  0
  8  9  1  0
  9 10  1  0
  9 21  2  0
 10 11  1  0
 11 12  2  0
 12 13  1  0
 13 14  2  0
 13 15  1  0
 15 20  1  0
 16 29  1  0
 17 19  1  0
 17 29  1  0
 18 25  1  0
 20 30  1  0
 20 33  2  0
 21 22  1  0
 22 23  2  0
 22 27  1  0
 23 28  1  0
 30 32  1  0
  1 34  1  0
  2 35  1  0
  4 36  1  0
  5 37  1  0
  8 38  1  0
 11 39  1  0
 12 40  1  0
 14 41  1  0
 15 42  1  6
 16 43  1  0
 16 44  1  0
 19 45  1  0
 21 46  1  0
 29 47  1  0
 30 48  1  0
 32 49  1  0
M  END
>  <filename_input>  (18) 
8EYE_X4I_docked.sdf

>  <pdb_id>  (18) 
8EYE_X4I

>  <pose_rank>  (18) 
17

>  <num_atoms_heavy>  (18) 
33

>  <num_torsions>  (18) 
7

>  <pose>  (18) 
[13.577087033726425, 12.430700714548356, 18.367763502829742, 1.0571867746270942, -4.3339673020891, -0.9409431674596136, 1.1394006402077368, 0.05068719432065084, -4.849898896734013, -0.6082632530700844, -2.1727442207248866, -1.8657161135312796, 0.37688387814295476]

>  <energy>  (18) 
-442.60988799379356

>  <inter_energy>  (18) 
-502.7472230127711

>  <intra_energy>  (18) 
49.47988301692198

>  <rmsd>  (18) 
6.93283

>  <sdf_rank>  (18) 
0

$$$$

     RDKit          3D

 49 51  0  0  0  0  0  0  0  0999 V2000
   14.6051    8.2924   16.0633 C   0  0  0  0  0  0  0  0  0  0  0  0
   16.6828    5.0892   14.1954 N   0  0  0  0  0  0  0  0  0  0  0  0
   15.3959    4.4414   13.9195 C   0  0  0  0  0  0  0  0  0  0  0  0
   17.5026    0.9270   14.7646 C   0  0  0  0  0  0  0  0  0  0  0  0
   19.7206    0.6931   13.8033 C   0  0  0  0  0  0  0  0  0  0  0  0
   19.3009    1.3221   12.6490 C   0  0  0  0  0  0  0  0  0  0  0  0
   11.6984   12.1331   15.6058 C   0  0  0  0  0  0  0  0  0  0  0  0
   12.6452   11.3495   14.9935 C   0  0  0  0  0  0  0  0  0  0  0  0
   13.2374   10.3577   15.7716 C   0  0  0  0  0  0  0  0  0  0  0  0
   14.2657    9.3601   15.2838 C   0  0  0  0  0  0  0  0  0  0  0  0
   14.7412    9.4995   13.9688 C   0  0  0  0  0  0  0  0  0  0  0  0
   15.6448    8.5498   13.4663 C   0  0  0  0  0  0  0  0  0  0  0  0
   16.0040    7.4627   14.2634 C   0  0  0  0  0  0  0  0  0  0  0  0
   15.5230    7.3181   15.5453 C   0  0  0  0  0  0  0  0  0  0  0  0
   16.9224    6.4198   13.6642 C   0  0  2  0  0  0  0  0  0  0  0  0
   15.1644    3.0080   14.5339 C   0  0  0  0  0  0  0  0  0  0  0  0
   17.0807    1.5558   13.6105 C   0  0  0  0  0  0  0  0  0  0  0  0
   18.8151    0.5169   14.8502 C   0  0  0  0  0  0  0  0  0  0  0  0
   17.9870    1.7409   12.5286 C   0  0  0  0  0  0  0  0  0  0  0  0
   17.0407    6.4471   12.1677 C   0  0  0  0  0  0  0  0  0  0  0  0
   12.8468   10.1425   17.1068 C   0  0  0  0  0  0  0  0  0  0  0  0
   11.8928   10.9483   17.6957 C   0  0  0  0  0  0  0  0  0  0  0  0
   11.3149   11.9362   16.9306 C   0  0  0  0  0  0  0  0  0  0  0  0
   11.1147   13.1285   14.8957 F   0  0  0  0  0  0  0  0  0  0  0  0
   19.2256   -0.1102   15.9603 F   0  0  0  0  0  0  0  0  0  0  0  0
   20.2094    1.4930   11.6448 F   0  0  0  0  0  0  0  0  0  0  0  0
   11.4709   10.7853   19.0079 F   0  0  0  0  0  0  0  0  0  0  0  0
   10.3519   12.7313   17.5277 F   0  0  0  0  0  0  0  0  0  0  0  0
   15.6679    1.9891   13.5266 N   0  0  0  0  0  0  0  0  0  0  0  0
   18.3497    6.8365   11.6917 N   0  0  0  0  0  0  0  0  0  0  0  0
   14.5631    4.9784   13.3083 O   0  0  0  0  0  0  0  0  0  0  0  0
   18.5098    6.8840   10.3027 O   0  0  0  0  0  0  0  0  0  0  0  0
   16.1382    6.1288   11.4421 O   0  0  0  0  0  0  0  0  0  0  0  0
   14.1820    8.1804   17.0725 H   0  0  0  0  0  0  0  0  0  0  0  0
   17.4026    4.6098   14.7550 H   0  0  0  0  0  0  0  0  0  0  0  0
   16.8056    0.7569   15.5984 H   0  0  0  0  0  0  0  0  0  0  0  0
   20.7564    0.3350   13.8971 H   0  0  0  0  0  0  0  0  0  0  0  0
   12.9226   11.4978   13.9394 H   0  0  0  0  0  0  0  0  0  0  0  0
   14.4102   10.3407   13.3421 H   0  0  0  0  0  0  0  0  0  0  0  0
   16.0647    8.6615   12.4558 H   0  0  0  0  0  0  0  0  0  0  0  0
   15.8384    6.4658   16.1652 H   0  0  0  0  0  0  0  0  0  0  0  0
   17.9242    6.7215   14.0040 H   0  0  0  0  0  0  0  0  0  0  0  0
   15.7217    2.9098   15.4771 H   0  0  0  0  0  0  0  0  0  0  0  0
   14.0971    2.8465   14.7456 H   0  0  0  0  0  0  0  0  0  0  0  0
   17.6437    2.2162   11.5979 H   0  0  0  0  0  0  0  0  0  0  0  0
   13.3049    9.3266   17.6850 H   0  0  0  0  0  0  0  0  0  0  0  0
   15.0416    1.6089   12.8027 H   0  0  0  0  0  0  0  0  0  0  0  0
   19.1188    7.0653   12.3374 H   0  0  0  0  0  0  0  0  0  0  0  0
   19.4361    7.1587   10.0865 H   0  0  0  0  0  0  0  0  0  0  0  0
  1 10  2  0
  1 14  1  0
  2  3  1  0
 15  2  1  0
  3 16  1  0
  3 31  2  0
  4 17  2  0
  4 18  1  0
  5  6  1  0
  5 18  2  0
  6 19  2  0
  6 26  1  0
  7  8  2  0
  7 23  1  0
  7 24  1  0
  8  9  1  0
  9 10  1  0
  9 21  2  0
 10 11  1  0
 11 12  2  0
 12 13  1  0
 13 14  2  0
 13 15  1  0
 15 20  1  0
 16 29  1  0
 17 19  1  0
 17 29  1  0
 18 25  1  0
 20 30  1  0
 20 33  2  0
 21 22  1  0
 22 23  2  0
 22 27  1  0
 23 28  1  0
 30 32  1  0
  1 34  1  0
  2 35  1  0
  4 36  1  0
  5 37  1  0
  8 38  1  0
 11 39  1  0
 12 40  1  0
 14 41  1  0
 15 42  1  1
 16 43  1  0
 16 44  1  0
 19 45  1  0
 21 46  1  0
 29 47  1  0
 30 48  1  0
 32 49  1  0
M  END
>  <filename_input>  (19) 
8EYE_X4I_docked.sdf

>  <pdb_id>  (19) 
8EYE_X4I

>  <pose_rank>  (19) 
18

>  <num_atoms_heavy>  (19) 
33

>  <num_torsions>  (19) 
7

>  <pose>  (19) 
[16.922399890210006, 6.41984337543543, 13.66415994323313, -0.3597854686206222, -0.6930478137728665, -0.49031618748435746, -2.3232082062754604, -5.110014539221899, 0.20313515527941592, 2.8949556298153096, -7.799379432644455, 9.44480021978146, -2.509315761681133]

>  <energy>  (19) 
-539.1975772913911

>  <inter_energy>  (19) 
-583.1859309559751

>  <intra_energy>  (19) 
54.08705840098189

>  <rmsd>  (19) 
5.2946

>  <sdf_rank>  (19) 
0

$$$$

     RDKit          3D

 49 51  0  0  0  0  0  0  0  0999 V2000
   15.6885    7.2169   15.5187 C   0  0  0  0  0  0  0  0  0  0  0  0
   15.8491    7.9864   11.3735 N   0  0  0  0  0  0  0  0  0  0  0  0
   16.4943    9.1522   11.9870 C   0  0  0  0  0  0  0  0  0  0  0  0
   13.5021   12.1957   13.3666 C   0  0  0  0  0  0  0  0  0  0  0  0
   13.0026   11.5404   15.6511 C   0  0  0  0  0  0  0  0  0  0  0  0
   13.4858   10.2711   15.4064 C   0  0  0  0  0  0  0  0  0  0  0  0
   16.6831    4.7860   19.5124 C   0  0  0  0  0  0  0  0  0  0  0  0
   16.8167    4.8674   18.1482 C   0  0  0  0  0  0  0  0  0  0  0  0
   15.9145    5.6893   17.4774 C   0  0  0  0  0  0  0  0  0  0  0  0
   15.9135    5.9550   15.9874 C   0  0  0  0  0  0  0  0  0  0  0  0
   16.2831    4.9015   15.1340 C   0  0  0  0  0  0  0  0  0  0  0  0
   16.3565    5.1375   13.7520 C   0  0  0  0  0  0  0  0  0  0  0  0
   16.1161    6.4230   13.2666 C   0  0  0  0  0  0  0  0  0  0  0  0
   15.7716    7.4584   14.1062 C   0  0  0  0  0  0  0  0  0  0  0  0
   16.2752    6.6585   11.7802 C   0  0  2  0  0  0  0  0  0  0  0  0
   15.9873   10.5759   11.5377 C   0  0  0  0  0  0  0  0  0  0  0  0
   13.9853   10.9265   13.1196 C   0  0  0  0  0  0  0  0  0  0  0  0
   13.0307   12.4883   14.6276 C   0  0  0  0  0  0  0  0  0  0  0  0
   13.9610    9.9430   14.1484 C   0  0  0  0  0  0  0  0  0  0  0  0
   17.6022    6.2598   11.2019 C   0  0  0  0  0  0  0  0  0  0  0  0
   14.9446    6.4351   18.1736 C   0  0  0  0  0  0  0  0  0  0  0  0
   14.8334    6.3310   19.5458 C   0  0  0  0  0  0  0  0  0  0  0  0
   15.7177    5.5101   20.2087 C   0  0  0  0  0  0  0  0  0  0  0  0
   17.5215    3.9774   20.2045 F   0  0  0  0  0  0  0  0  0  0  0  0
   12.5436   13.7127   14.8680 F   0  0  0  0  0  0  0  0  0  0  0  0
   13.4583    9.3663   16.4279 F   0  0  0  0  0  0  0  0  0  0  0  0
   13.8953    7.0389   20.2843 F   0  0  0  0  0  0  0  0  0  0  0  0
   15.6044    5.4215   21.5854 F   0  0  0  0  0  0  0  0  0  0  0  0
   14.4859   10.6209   11.7608 N   0  0  0  0  0  0  0  0  0  0  0  0
   18.7072    6.3975   12.1246 N   0  0  0  0  0  0  0  0  0  0  0  0
   17.3170    9.0335   12.8023 O   0  0  0  0  0  0  0  0  0  0  0  0
   19.9679    6.0448   11.6312 O   0  0  0  0  0  0  0  0  0  0  0  0
   17.7174    5.8245   10.0885 O   0  0  0  0  0  0  0  0  0  0  0  0
   15.4474    8.0359   16.2123 H   0  0  0  0  0  0  0  0  0  0  0  0
   15.1083    8.1070   10.6682 H   0  0  0  0  0  0  0  0  0  0  0  0
   13.4936   12.9576   12.5731 H   0  0  0  0  0  0  0  0  0  0  0  0
   12.6002   11.8016   16.6410 H   0  0  0  0  0  0  0  0  0  0  0  0
   17.5985    4.3103   17.6112 H   0  0  0  0  0  0  0  0  0  0  0  0
   16.5117    3.9063   15.5429 H   0  0  0  0  0  0  0  0  0  0  0  0
   16.6008    4.3182   13.0599 H   0  0  0  0  0  0  0  0  0  0  0  0
   15.5626    8.4588   13.6994 H   0  0  0  0  0  0  0  0  0  0  0  0
   15.5737    5.9459   11.3219 H   0  0  0  0  0  0  0  0  0  0  0  0
   16.4790   11.3557   12.1379 H   0  0  0  0  0  0  0  0  0  0  0  0
   16.2258   10.7542   10.4788 H   0  0  0  0  0  0  0  0  0  0  0  0
   14.3194    8.9234   13.9439 H   0  0  0  0  0  0  0  0  0  0  0  0
   14.2705    7.1056   17.6204 H   0  0  0  0  0  0  0  0  0  0  0  0
   13.8318   10.4429   10.9853 H   0  0  0  0  0  0  0  0  0  0  0  0
   18.5739    6.7355   13.0884 H   0  0  0  0  0  0  0  0  0  0  0  0
   20.5823    5.8728   12.3882 H   0  0  0  0  0  0  0  0  0  0  0  0
  1 10  2  0
  1 14  1  0
  2  3  1  0
 15  2  1  0
  3 16  1  0
  3 31  2  0
  4 17  2  0
  4 18  1  0
  5  6  1  0
  5 18  2  0
  6 19  2  0
  6 26  1  0
  7  8  2  0
  7 23  1  0
  7 24  1  0
  8  9  1  0
  9 10  1  0
  9 21  2  0
 10 11  1  0
 11 12  2  0
 12 13  1  0
 13 14  2  0
 13 15  1  0
 15 20  1  0
 16 29  1  0
 17 19  1  0
 17 29  1  0
 18 25  1  0
 20 30  1  0
 20 33  2  0
 21 22  1  0
 22 23  2  0
 22 27  1  0
 23 28  1  0
 30 32  1  0
  1 34  1  0
  2 35  1  0
  4 36  1  0
  5 37  1  0
  8 38  1  0
 11 39  1  0
 12 40  1  0
 14 41  1  0
 15 42  1  6
 16 43  1  0
 16 44  1  0
 19 45  1  0
 21 46  1  0
 29 47  1  0
 30 48  1  0
 32 49  1  0
M  END
>  <filename_input>  (20) 
8EYE_X4I_docked.sdf

>  <pdb_id>  (20) 
8EYE_X4I

>  <pose_rank>  (20) 
19

>  <num_atoms_heavy>  (20) 
33

>  <num_torsions>  (20) 
7

>  <pose>  (20) 
[16.275201169595782, 6.658470715817626, 11.780195516170329, -0.7011306136002777, 0.051556985613951056, 3.0139402738963414, 3.3026817609539116, 1.7002259777767252, -2.312900238937387, -3.5107606766164037, 1.0016735955029499, -3.258447555940619, -1.7810697831658264]

>  <energy>  (20) 
-402.9634302670238

>  <inter_energy>  (20) 
-525.2601189798585

>  <intra_energy>  (20) 
120.71901955309451

>  <rmsd>  (20) 
6.35096

>  <sdf_rank>  (20) 
0

$$$$

     RDKit          3D

 49 51  0  0  0  0  0  0  0  0999 V2000
   12.9246    9.9774   16.7041 C   0  0  0  0  0  0  0  0  0  0  0  0
   11.7295   12.5601   20.4068 N   0  0  0  0  0  0  0  0  0  0  0  0
   12.7463   12.4525   21.4587 C   0  0  0  0  0  0  0  0  0  0  0  0
   15.8566   15.0782   19.9622 C   0  0  0  0  0  0  0  0  0  0  0  0
   16.7556   13.5947   18.2625 C   0  0  0  0  0  0  0  0  0  0  0  0
   15.5977   12.8443   18.2864 C   0  0  0  0  0  0  0  0  0  0  0  0
   14.2943   10.0289   12.5578 C   0  0  0  0  0  0  0  0  0  0  0  0
   14.0066    9.9839   13.8997 C   0  0  0  0  0  0  0  0  0  0  0  0
   12.9522   10.7789   14.3423 C   0  0  0  0  0  0  0  0  0  0  0  0
   12.4428   10.8438   15.7660 C   0  0  0  0  0  0  0  0  0  0  0  0
   11.5777   11.8982   16.1047 C   0  0  0  0  0  0  0  0  0  0  0  0
   11.1427   12.0229   17.4337 C   0  0  0  0  0  0  0  0  0  0  0  0
   11.6231   11.1327   18.3942 C   0  0  0  0  0  0  0  0  0  0  0  0
   12.4849   10.1111   18.0639 C   0  0  0  0  0  0  0  0  0  0  0  0
   11.1910   11.3407   19.8295 C   0  0  2  0  0  0  0  0  0  0  0  0
   13.2882   13.7977   22.0773 C   0  0  0  0  0  0  0  0  0  0  0  0
   14.6978   14.3285   19.9881 C   0  0  0  0  0  0  0  0  0  0  0  0
   16.8610   14.7101   19.0941 C   0  0  0  0  0  0  0  0  0  0  0  0
   14.5719   13.1838   19.1516 C   0  0  0  0  0  0  0  0  0  0  0  0
    9.7246   11.1576   20.0951 C   0  0  0  0  0  0  0  0  0  0  0  0
   12.1913   11.5529   13.4460 C   0  0  0  0  0  0  0  0  0  0  0  0
   12.5060   11.5792   12.1020 C   0  0  0  0  0  0  0  0  0  0  0  0
   13.5552   10.8022   11.6652 C   0  0  0  0  0  0  0  0  0  0  0  0
   15.3292    9.2927   12.0859 F   0  0  0  0  0  0  0  0  0  0  0  0
   17.9950   15.4230   19.0777 F   0  0  0  0  0  0  0  0  0  0  0  0
   15.5152   11.7655   17.4544 F   0  0  0  0  0  0  0  0  0  0  0  0
   11.7940   12.3254   11.1731 F   0  0  0  0  0  0  0  0  0  0  0  0
   13.8552   10.8276   10.3142 F   0  0  0  0  0  0  0  0  0  0  0  0
   13.6262   14.7296   20.9269 N   0  0  0  0  0  0  0  0  0  0  0  0
    9.2678   11.7893   21.3133 N   0  0  0  0  0  0  0  0  0  0  0  0
   13.1087   11.4180   21.8512 O   0  0  0  0  0  0  0  0  0  0  0  0
    7.9085   11.6421   21.6099 O   0  0  0  0  0  0  0  0  0  0  0  0
    8.9978   10.5768   19.3357 O   0  0  0  0  0  0  0  0  0  0  0  0
   13.6385    9.1894   16.4226 H   0  0  0  0  0  0  0  0  0  0  0  0
   11.4038   13.4823   20.0838 H   0  0  0  0  0  0  0  0  0  0  0  0
   15.9754   15.9512   20.6208 H   0  0  0  0  0  0  0  0  0  0  0  0
   17.5854   13.3169   17.5959 H   0  0  0  0  0  0  0  0  0  0  0  0
   14.5812    9.3506   14.5917 H   0  0  0  0  0  0  0  0  0  0  0  0
   11.2463   12.6156   15.3396 H   0  0  0  0  0  0  0  0  0  0  0  0
   10.4311   12.8134   17.7143 H   0  0  0  0  0  0  0  0  0  0  0  0
   12.8324    9.4055   18.8330 H   0  0  0  0  0  0  0  0  0  0  0  0
   11.6539   10.5022   20.3704 H   0  0  0  0  0  0  0  0  0  0  0  0
   12.5173   14.2543   22.7156 H   0  0  0  0  0  0  0  0  0  0  0  0
   14.1786   13.6077   22.6945 H   0  0  0  0  0  0  0  0  0  0  0  0
   13.6603   12.5695   19.1926 H   0  0  0  0  0  0  0  0  0  0  0  0
   11.3399   12.1411   13.8191 H   0  0  0  0  0  0  0  0  0  0  0  0
   13.1219   15.6191   20.8029 H   0  0  0  0  0  0  0  0  0  0  0  0
    9.9057   12.3166   21.9264 H   0  0  0  0  0  0  0  0  0  0  0  0
    7.7846   11.6286   22.5920 H   0  0  0  0  0  0  0  0  0  0  0  0
  1 10  2  0
  1 14  1  0
  2  3  1  0
 15  2  1  0
  3 16  1  0
  3 31  2  0
  4 17  2  0
  4 18  1  0
  5  6  1  0
  5 18  2  0
  6 19  2  0
  6 26  1  0
  7  8  2  0
  7 23  1  0
  7 24  1  0
  8  9  1  0
  9 10  1  0
  9 21  2  0
 10 11  1  0
 11 12  2  0
 12 13  1  0
 13 14  2  0
 13 15  1  0
 15 20  1  0
 16 29  1  0
 17 19  1  0
 17 29  1  0
 18 25  1  0
 20 30  1  0
 20 33  2  0
 21 22  1  0
 22 23  2  0
 22 27  1  0
 23 28  1  0
 30 32  1  0
  1 34  1  0
  2 35  1  0
  4 36  1  0
  5 37  1  0
  8 38  1  0
 11 39  1  0
 12 40  1  0
 14 41  1  0
 15 42  1  1
 16 43  1  0
 16 44  1  0
 19 45  1  0
 21 46  1  0
 29 47  1  0
 30 48  1  0
 32 49  1  0
M  END
>  <filename_input>  (21) 
8EYE_X4I_docked.sdf

>  <pdb_id>  (21) 
8EYE_X4I

>  <pose_rank>  (21) 
20

>  <num_atoms_heavy>  (21) 
33

>  <num_torsions>  (21) 
7

>  <pose>  (21) 
[11.190951311035725, 11.340677080812572, 19.829543293562633, 2.9988754016418433, -0.20149822353242813, 1.0472739121585148, -0.8954039109096031, 3.9890142391669614, 1.7271731367435865, -0.17591096727564332, -0.7847748776825503, 0.4789768370891618, 0.7220169931875211]

>  <energy>  (21) 
-479.3781917791909

>  <inter_energy>  (21) 
-499.00652358632925

>  <intra_energy>  (21) 
34.29720444304285

>  <rmsd>  (21) 
8.76156

>  <sdf_rank>  (21) 
0

$$$$

     RDKit          3D

 49 51  0  0  0  0  0  0  0  0999 V2000
   19.2583    4.1994   11.4815 C   0  0  0  0  0  0  0  0  0  0  0  0
   15.7681    6.4222   13.3625 N   0  0  0  0  0  0  0  0  0  0  0  0
   16.1716    7.8088   13.6202 C   0  0  0  0  0  0  0  0  0  0  0  0
   13.2504   11.2216   12.8454 C   0  0  0  0  0  0  0  0  0  0  0  0
   12.5747   13.2153   14.0565 C   0  0  0  0  0  0  0  0  0  0  0  0
   12.9578   12.6364   15.2492 C   0  0  0  0  0  0  0  0  0  0  0  0
   21.0162    1.3293    8.5819 C   0  0  0  0  0  0  0  0  0  0  0  0
   20.6248    2.0399    9.6898 C   0  0  0  0  0  0  0  0  0  0  0  0
   19.2780    2.3848    9.7703 C   0  0  0  0  0  0  0  0  0  0  0  0
   18.6312    3.1241   10.9217 C   0  0  0  0  0  0  0  0  0  0  0  0
   17.3267    2.7520   11.2890 C   0  0  0  0  0  0  0  0  0  0  0  0
   16.6762    3.4646   12.3087 C   0  0  0  0  0  0  0  0  0  0  0  0
   17.3174    4.5574   12.8922 C   0  0  0  0  0  0  0  0  0  0  0  0
   18.5886    4.9317   12.5185 C   0  0  0  0  0  0  0  0  0  0  0  0
   16.5587    5.3472   13.9366 C   0  0  2  0  0  0  0  0  0  0  0  0
   15.2741    8.9474   13.0005 C   0  0  0  0  0  0  0  0  0  0  0  0
   13.6336   10.6406   14.0374 C   0  0  0  0  0  0  0  0  0  0  0  0
   12.7398   12.5010   12.8694 C   0  0  0  0  0  0  0  0  0  0  0  0
   13.4689   11.3500   15.2604 C   0  0  0  0  0  0  0  0  0  0  0  0
   15.8022    4.5279   14.9419 C   0  0  0  0  0  0  0  0  0  0  0  0
   18.3577    1.9816    8.7844 C   0  0  0  0  0  0  0  0  0  0  0  0
   18.7817    1.2691    7.6804 C   0  0  0  0  0  0  0  0  0  0  0  0
   20.1151    0.9372    7.5944 C   0  0  0  0  0  0  0  0  0  0  0  0
   22.3222    0.9948    8.4474 F   0  0  0  0  0  0  0  0  0  0  0  0
   12.3491   13.0630   11.7179 F   0  0  0  0  0  0  0  0  0  0  0  0
   12.7972   13.3610   16.3947 F   0  0  0  0  0  0  0  0  0  0  0  0
   17.9212    0.8479    6.6761 F   0  0  0  0  0  0  0  0  0  0  0  0
   20.5275    0.2135    6.4890 F   0  0  0  0  0  0  0  0  0  0  0  0
   14.1773    9.2645   14.0017 N   0  0  0  0  0  0  0  0  0  0  0  0
   16.6497    3.7599   15.8270 N   0  0  0  0  0  0  0  0  0  0  0  0
   17.0911    8.0607   14.2885 O   0  0  0  0  0  0  0  0  0  0  0  0
   15.9921    2.9734   16.7790 O   0  0  0  0  0  0  0  0  0  0  0  0
   14.6042    4.5509   15.0244 O   0  0  0  0  0  0  0  0  0  0  0  0
   20.2609    4.5000   11.1433 H   0  0  0  0  0  0  0  0  0  0  0  0
   14.9403    6.2148   12.7858 H   0  0  0  0  0  0  0  0  0  0  0  0
   13.3506   10.6746   11.8963 H   0  0  0  0  0  0  0  0  0  0  0  0
   12.1444   14.2276   14.0419 H   0  0  0  0  0  0  0  0  0  0  0  0
   21.3405    2.3229   10.4758 H   0  0  0  0  0  0  0  0  0  0  0  0
   16.8227    1.9144   10.7846 H   0  0  0  0  0  0  0  0  0  0  0  0
   15.6723    3.1646   12.6437 H   0  0  0  0  0  0  0  0  0  0  0  0
   19.0851    5.7820   13.0090 H   0  0  0  0  0  0  0  0  0  0  0  0
   17.3491    5.8206   14.5375 H   0  0  0  0  0  0  0  0  0  0  0  0
   15.8825    9.8447   12.8141 H   0  0  0  0  0  0  0  0  0  0  0  0
   14.8408    8.6198   12.0440 H   0  0  0  0  0  0  0  0  0  0  0  0
   13.7475   10.8766   16.2134 H   0  0  0  0  0  0  0  0  0  0  0  0
   17.2932    2.2359    8.8943 H   0  0  0  0  0  0  0  0  0  0  0  0
   13.8204    8.5395   14.6405 H   0  0  0  0  0  0  0  0  0  0  0  0
   17.6771    3.7902   15.7604 H   0  0  0  0  0  0  0  0  0  0  0  0
   16.2444    3.2751   17.6875 H   0  0  0  0  0  0  0  0  0  0  0  0
  1 10  2  0
  1 14  1  0
  2  3  1  0
 15  2  1  0
  3 16  1  0
  3 31  2  0
  4 17  2  0
  4 18  1  0
  5  6  1  0
  5 18  2  0
  6 19  2  0
  6 26  1  0
  7  8  2  0
  7 23  1  0
  7 24  1  0
  8  9  1  0
  9 10  1  0
  9 21  2  0
 10 11  1  0
 11 12  2  0
 12 13  1  0
 13 14  2  0
 13 15  1  0
 15 20  1  0
 16 29  1  0
 17 19  1  0
 17 29  1  0
 18 25  1  0
 20 30  1  0
 20 33  2  0
 21 22  1  0
 22 23  2  0
 22 27  1  0
 23 28  1  0
 30 32  1  0
  1 34  1  0
  2 35  1  0
  4 36  1  0
  5 37  1  0
  8 38  1  0
 11 39  1  0
 12 40  1  0
 14 41  1  0
 15 42  1  1
 16 43  1  0
 16 44  1  0
 19 45  1  0
 21 46  1  0
 29 47  1  0
 30 48  1  0
 32 49  1  0
M  END
>  <filename_input>  (22) 
8EYE_X4I_docked.sdf

>  <pdb_id>  (22) 
8EYE_X4I

>  <pose_rank>  (22) 
21

>  <num_atoms_heavy>  (22) 
33

>  <num_torsions>  (22) 
7

>  <pose>  (22) 
[16.558727357834986, 5.347171327066051, 13.936590123475762, 2.230288551245628, 1.4158603264144913, 0.5536894933708237, -1.2717752725373848, -1.412844745827352, -0.5962480371713836, -0.18187220891658182, 1.5873780299888305, 4.206252940451227, -2.7189590364945273]

>  <energy>  (22) 
-506.224833865019

>  <inter_energy>  (22) 
-488.7924811732526

>  <intra_energy>  (22) 
0.8665202361855373

>  <rmsd>  (22) 
11.3296

>  <sdf_rank>  (22) 
0

$$$$

     RDKit          3D

 49 51  0  0  0  0  0  0  0  0999 V2000
   18.1654    4.7046   14.3835 C   0  0  0  0  0  0  0  0  0  0  0  0
   14.7762    6.5752   17.3168 N   0  0  0  0  0  0  0  0  0  0  0  0
   14.5957    7.8269   16.5735 C   0  0  0  0  0  0  0  0  0  0  0  0
   13.1468   10.6052   14.6192 C   0  0  0  0  0  0  0  0  0  0  0  0
   12.5147   12.8611   13.9790 C   0  0  0  0  0  0  0  0  0  0  0  0
   12.4130   13.2233   15.3067 C   0  0  0  0  0  0  0  0  0  0  0  0
   17.8723    2.3795   10.3659 C   0  0  0  0  0  0  0  0  0  0  0  0
   17.6004    2.5911   11.6952 C   0  0  0  0  0  0  0  0  0  0  0  0
   17.5016    3.9162   12.1122 C   0  0  0  0  0  0  0  0  0  0  0  0
   17.1660    4.3688   13.5168 C   0  0  0  0  0  0  0  0  0  0  0  0
   15.8110    4.5579   13.8379 C   0  0  0  0  0  0  0  0  0  0  0  0
   15.4734    5.0417   15.1118 C   0  0  0  0  0  0  0  0  0  0  0  0
   16.4910    5.3754   16.0056 C   0  0  0  0  0  0  0  0  0  0  0  0
   17.8187    5.2065   15.6828 C   0  0  0  0  0  0  0  0  0  0  0  0
   16.0931    5.9625   17.3425 C   0  0  2  0  0  0  0  0  0  0  0  0
   13.1579    8.4737   16.5898 C   0  0  0  0  0  0  0  0  0  0  0  0
   13.0449   10.9654   15.9478 C   0  0  0  0  0  0  0  0  0  0  0  0
   12.8936   11.5575   13.6564 C   0  0  0  0  0  0  0  0  0  0  0  0
   12.6549   12.2886   16.2987 C   0  0  0  0  0  0  0  0  0  0  0  0
   16.3068    5.0684   18.5295 C   0  0  0  0  0  0  0  0  0  0  0  0
   17.6283    4.9825   11.2020 C   0  0  0  0  0  0  0  0  0  0  0  0
   17.9035    4.7383    9.8713 C   0  0  0  0  0  0  0  0  0  0  0  0
   18.0124    3.4289    9.4603 C   0  0  0  0  0  0  0  0  0  0  0  0
   18.0042    1.1070    9.9199 F   0  0  0  0  0  0  0  0  0  0  0  0
   12.9729   11.2090   12.3654 F   0  0  0  0  0  0  0  0  0  0  0  0
   12.0526   14.5077   15.5955 F   0  0  0  0  0  0  0  0  0  0  0  0
   18.0420    5.7489    8.9300 F   0  0  0  0  0  0  0  0  0  0  0  0
   18.2777    3.1951    8.1220 F   0  0  0  0  0  0  0  0  0  0  0  0
   13.3151    9.9343   16.9746 N   0  0  0  0  0  0  0  0  0  0  0  0
   15.9092    5.6614   19.7872 N   0  0  0  0  0  0  0  0  0  0  0  0
   15.4849    8.3447   16.0287 O   0  0  0  0  0  0  0  0  0  0  0  0
   16.0946    4.8701   20.9260 O   0  0  0  0  0  0  0  0  0  0  0  0
   16.7274    3.9481   18.4274 O   0  0  0  0  0  0  0  0  0  0  0  0
   19.2199    4.5923   14.0910 H   0  0  0  0  0  0  0  0  0  0  0  0
   13.9846    6.1392   17.8110 H   0  0  0  0  0  0  0  0  0  0  0  0
   13.4243    9.5794   14.3351 H   0  0  0  0  0  0  0  0  0  0  0  0
   12.2998   13.5911   13.1848 H   0  0  0  0  0  0  0  0  0  0  0  0
   17.4672    1.7543   12.3967 H   0  0  0  0  0  0  0  0  0  0  0  0
   15.0261    4.3300   13.1016 H   0  0  0  0  0  0  0  0  0  0  0  0
   14.4185    5.1564   15.4018 H   0  0  0  0  0  0  0  0  0  0  0  0
   18.6045    5.4533   16.4119 H   0  0  0  0  0  0  0  0  0  0  0  0
   16.8178    6.7745   17.5021 H   0  0  0  0  0  0  0  0  0  0  0  0
   12.7004    8.3958   15.5925 H   0  0  0  0  0  0  0  0  0  0  0  0
   12.5084    7.9528   17.3087 H   0  0  0  0  0  0  0  0  0  0  0  0
   12.5459   12.5682   17.3570 H   0  0  0  0  0  0  0  0  0  0  0  0
   17.5071    6.0178   11.5535 H   0  0  0  0  0  0  0  0  0  0  0  0
   13.6027   10.2009   17.9270 H   0  0  0  0  0  0  0  0  0  0  0  0
   15.5129    6.6105   19.8414 H   0  0  0  0  0  0  0  0  0  0  0  0
   15.9651    5.4231   21.7368 H   0  0  0  0  0  0  0  0  0  0  0  0
  1 10  2  0
  1 14  1  0
  2  3  1  0
 15  2  1  0
  3 16  1  0
  3 31  2  0
  4 17  2  0
  4 18  1  0
  5  6  1  0
  5 18  2  0
  6 19  2  0
  6 26  1  0
  7  8  2  0
  7 23  1  0
  7 24  1  0
  8  9  1  0
  9 10  1  0
  9 21  2  0
 10 11  1  0
 11 12  2  0
 12 13  1  0
 13 14  2  0
 13 15  1  0
 15 20  1  0
 16 29  1  0
 17 19  1  0
 17 29  1  0
 18 25  1  0
 20 30  1  0
 20 33  2  0
 21 22  1  0
 22 23  2  0
 22 27  1  0
 23 28  1  0
 30 32  1  0
  1 34  1  0
  2 35  1  0
  4 36  1  0
  5 37  1  0
  8 38  1  0
 11 39  1  0
 12 40  1  0
 14 41  1  0
 15 42  1  1
 16 43  1  0
 16 44  1  0
 19 45  1  0
 21 46  1  0
 29 47  1  0
 30 48  1  0
 32 49  1  0
M  END
>  <filename_input>  (23) 
8EYE_X4I_docked.sdf

>  <pdb_id>  (23) 
8EYE_X4I

>  <pose_rank>  (23) 
22

>  <num_atoms_heavy>  (23) 
33

>  <num_torsions>  (23) 
7

>  <pose>  (23) 
[16.09314371390807, 5.962529427416024, 17.342485604863665, -2.287823865587648, -2.2905125947547593, -0.04753794546254596, -0.11761267079944879, -0.4785072584135467, 1.3804874810162266, 0.5261793555805104, -3.9751835674600318, 3.524032361008529, 2.2962166898690035]

>  <energy>  (23) 
-457.57555288030056

>  <inter_energy>  (23) 
-487.72020182211776

>  <intra_energy>  (23) 
20.934568886411586

>  <rmsd>  (23) 
10.0846

>  <sdf_rank>  (23) 
0

$$$$

     RDKit          3D

 49 51  0  0  0  0  0  0  0  0999 V2000
   18.0729    5.2682   14.9378 C   0  0  0  0  0  0  0  0  0  0  0  0
   14.2042    7.7386   16.4111 N   0  0  0  0  0  0  0  0  0  0  0  0
   14.1738    9.1660   16.7479 C   0  0  0  0  0  0  0  0  0  0  0  0
   13.4473   11.8573   18.2989 C   0  0  0  0  0  0  0  0  0  0  0  0
   12.7877   13.1011   20.2777 C   0  0  0  0  0  0  0  0  0  0  0  0
   11.5756   12.4418   20.3040 C   0  0  0  0  0  0  0  0  0  0  0  0
   18.9073    2.4119   11.3711 C   0  0  0  0  0  0  0  0  0  0  0  0
   18.2692    2.8049   12.5218 C   0  0  0  0  0  0  0  0  0  0  0  0
   18.0775    4.1732   12.6968 C   0  0  0  0  0  0  0  0  0  0  0  0
   17.3608    4.8139   13.8657 C   0  0  0  0  0  0  0  0  0  0  0  0
   15.9796    5.0419   13.7420 C   0  0  0  0  0  0  0  0  0  0  0  0
   15.3007    5.6956   14.7826 C   0  0  0  0  0  0  0  0  0  0  0  0
   16.0221    6.1516   15.8860 C   0  0  0  0  0  0  0  0  0  0  0  0
   17.3785    5.9432   15.9972 C   0  0  0  0  0  0  0  0  0  0  0  0
   15.2712    6.9160   16.9546 C   0  0  2  0  0  0  0  0  0  0  0  0
   12.9865   10.0201   16.1589 C   0  0  0  0  0  0  0  0  0  0  0  0
   12.2353   11.1972   18.3231 C   0  0  0  0  0  0  0  0  0  0  0  0
   13.7113   12.7877   19.2800 C   0  0  0  0  0  0  0  0  0  0  0  0
   11.2768   11.5056   19.3292 C   0  0  0  0  0  0  0  0  0  0  0  0
   14.8473    6.1095   18.1479 C   0  0  0  0  0  0  0  0  0  0  0  0
   18.4779    5.1008   11.7167 C   0  0  0  0  0  0  0  0  0  0  0  0
   19.1190    4.6754   10.5704 C   0  0  0  0  0  0  0  0  0  0  0  0
   19.3191    3.3238   10.4016 C   0  0  0  0  0  0  0  0  0  0  0  0
   19.1400    1.0923   11.1704 F   0  0  0  0  0  0  0  0  0  0  0  0
   14.8783   13.4447   19.2510 F   0  0  0  0  0  0  0  0  0  0  0  0
   10.6948   12.7581   21.2975 F   0  0  0  0  0  0  0  0  0  0  0  0
   19.5389    5.5437    9.5722 F   0  0  0  0  0  0  0  0  0  0  0  0
   19.9530    2.9073    9.2438 F   0  0  0  0  0  0  0  0  0  0  0  0
   11.9594   10.2023   17.2626 N   0  0  0  0  0  0  0  0  0  0  0  0
   14.4455    6.9111   19.2826 N   0  0  0  0  0  0  0  0  0  0  0  0
   14.9678    9.6417   17.4541 O   0  0  0  0  0  0  0  0  0  0  0  0
   14.0474    6.2060   20.4235 O   0  0  0  0  0  0  0  0  0  0  0  0
   14.8060    4.9093   18.1352 O   0  0  0  0  0  0  0  0  0  0  0  0
   19.1615    5.1193   14.9891 H   0  0  0  0  0  0  0  0  0  0  0  0
   13.4831    7.3275   15.8013 H   0  0  0  0  0  0  0  0  0  0  0  0
   14.1868   11.6449   17.5128 H   0  0  0  0  0  0  0  0  0  0  0  0
   13.0227   13.8644   21.0341 H   0  0  0  0  0  0  0  0  0  0  0  0
   17.9262    2.0743   13.2691 H   0  0  0  0  0  0  0  0  0  0  0  0
   15.4382    4.7130   12.8428 H   0  0  0  0  0  0  0  0  0  0  0  0
   14.2125    5.8464   14.7284 H   0  0  0  0  0  0  0  0  0  0  0  0
   17.9237    6.2900   16.8875 H   0  0  0  0  0  0  0  0  0  0  0  0
   16.0236    7.6042   17.3671 H   0  0  0  0  0  0  0  0  0  0  0  0
   13.3585   11.0007   15.8273 H   0  0  0  0  0  0  0  0  0  0  0  0
   12.5370    9.5112   15.2935 H   0  0  0  0  0  0  0  0  0  0  0  0
   10.2996   11.0005   19.3321 H   0  0  0  0  0  0  0  0  0  0  0  0
   18.2786    6.1724   11.8652 H   0  0  0  0  0  0  0  0  0  0  0  0
   11.0920    9.6471   17.2729 H   0  0  0  0  0  0  0  0  0  0  0  0
   14.4519    7.9407   19.2525 H   0  0  0  0  0  0  0  0  0  0  0  0
   14.3277    6.7026   21.2328 H   0  0  0  0  0  0  0  0  0  0  0  0
  1 10  2  0
  1 14  1  0
  2  3  1  0
 15  2  1  0
  3 16  1  0
  3 31  2  0
  4 17  2  0
  4 18  1  0
  5  6  1  0
  5 18  2  0
  6 19  2  0
  6 26  1  0
  7  8  2  0
  7 23  1  0
  7 24  1  0
  8  9  1  0
  9 10  1  0
  9 21  2  0
 10 11  1  0
 11 12  2  0
 12 13  1  0
 13 14  2  0
 13 15  1  0
 15 20  1  0
 16 29  1  0
 17 19  1  0
 17 29  1  0
 18 25  1  0
 20 30  1  0
 20 33  2  0
 21 22  1  0
 22 23  2  0
 22 27  1  0
 23 28  1  0
 30 32  1  0
  1 34  1  0
  2 35  1  0
  4 36  1  0
  5 37  1  0
  8 38  1  0
 11 39  1  0
 12 40  1  0
 14 41  1  0
 15 42  1  1
 16 43  1  0
 16 44  1  0
 19 45  1  0
 21 46  1  0
 29 47  1  0
 30 48  1  0
 32 49  1  0
M  END
>  <filename_input>  (24) 
8EYE_X4I_docked.sdf

>  <pdb_id>  (24) 
8EYE_X4I

>  <pose_rank>  (24) 
23

>  <num_atoms_heavy>  (24) 
33

>  <num_torsions>  (24) 
7

>  <pose>  (24) 
[15.2711656591524, 6.91603036658699, 16.954569307073402, -2.7256692409229033, -2.236192495042038, -0.4654614425411049, -0.3253160724155279, -0.5046366135711416, 1.115720820317207, -0.44657155496958895, -4.478598919898673, 2.930784287480072, 2.6410533753837426]

>  <energy>  (24) 
-513.5186265761372

>  <inter_energy>  (24) 
-551.9521704328419

>  <intra_energy>  (24) 
37.249496208177504

>  <rmsd>  (24) 
10.1462

>  <sdf_rank>  (24) 
0

$$$$

     RDKit          3D

 49 51  0  0  0  0  0  0  0  0999 V2000
   11.5317   11.8202   16.4245 C   0  0  0  0  0  0  0  0  0  0  0  0
   12.5944   11.9934   20.9469 N   0  0  0  0  0  0  0  0  0  0  0  0
   12.5317   13.4369   20.6934 C   0  0  0  0  0  0  0  0  0  0  0  0
   16.6129   14.9431   19.9490 C   0  0  0  0  0  0  0  0  0  0  0  0
   16.8410   14.4550   17.5810 C   0  0  0  0  0  0  0  0  0  0  0  0
   15.7917   13.5614   17.6508 C   0  0  0  0  0  0  0  0  0  0  0  0
   12.5849   11.3998   12.2058 C   0  0  0  0  0  0  0  0  0  0  0  0
   12.1610   11.6110   13.4948 C   0  0  0  0  0  0  0  0  0  0  0  0
   12.8716   10.9640   14.5028 C   0  0  0  0  0  0  0  0  0  0  0  0
   12.6014   11.0947   15.9862 C   0  0  0  0  0  0  0  0  0  0  0  0
   13.3972   10.3410   16.8658 C   0  0  0  0  0  0  0  0  0  0  0  0
   13.1259   10.3901   18.2424 C   0  0  0  0  0  0  0  0  0  0  0  0
   12.0407   11.1397   18.6967 C   0  0  0  0  0  0  0  0  0  0  0  0
   11.2510   11.8632   17.8314 C   0  0  0  0  0  0  0  0  0  0  0  0
   11.7330   11.1118   20.1781 C   0  0  2  0  0  0  0  0  0  0  0  0
   13.4995   14.3582   21.5303 C   0  0  0  0  0  0  0  0  0  0  0  0
   15.5636   14.0493   20.0211 C   0  0  0  0  0  0  0  0  0  0  0  0
   17.2270   15.1426   18.7320 C   0  0  0  0  0  0  0  0  0  0  0  0
   15.1572   13.3335   18.8598 C   0  0  0  0  0  0  0  0  0  0  0  0
   10.2812   11.2409   20.5385 C   0  0  0  0  0  0  0  0  0  0  0  0
   13.9978   10.1709   14.2127 C   0  0  0  0  0  0  0  0  0  0  0  0
   14.3989    9.9757   12.9061 C   0  0  0  0  0  0  0  0  0  0  0  0
   13.6903   10.6059   11.9081 C   0  0  0  0  0  0  0  0  0  0  0  0
   11.9073   11.9872   11.1902 F   0  0  0  0  0  0  0  0  0  0  0  0
   18.2577   15.9951   18.6598 F   0  0  0  0  0  0  0  0  0  0  0  0
   15.4259   12.9109   16.5080 F   0  0  0  0  0  0  0  0  0  0  0  0
   15.4984    9.2024   12.5602 F   0  0  0  0  0  0  0  0  0  0  0  0
   14.1075   10.4121   10.6026 F   0  0  0  0  0  0  0  0  0  0  0  0
   14.9129   13.8389   21.3337 N   0  0  0  0  0  0  0  0  0  0  0  0
    9.4171   10.3313   19.8190 N   0  0  0  0  0  0  0  0  0  0  0  0
   11.8280   13.8817   19.8794 O   0  0  0  0  0  0  0  0  0  0  0  0
    8.0523   10.4167   20.1142 O   0  0  0  0  0  0  0  0  0  0  0  0
    9.8897   12.0014   21.3815 O   0  0  0  0  0  0  0  0  0  0  0  0
   10.8949   12.3635   15.7108 H   0  0  0  0  0  0  0  0  0  0  0  0
   13.2367   11.6124   21.6562 H   0  0  0  0  0  0  0  0  0  0  0  0
   16.9517   15.4848   20.8445 H   0  0  0  0  0  0  0  0  0  0  0  0
   17.3666   14.6231   16.6294 H   0  0  0  0  0  0  0  0  0  0  0  0
   11.3018   12.2598   13.7202 H   0  0  0  0  0  0  0  0  0  0  0  0
   14.2208    9.7215   16.4813 H   0  0  0  0  0  0  0  0  0  0  0  0
   13.7618    9.8439   18.9546 H   0  0  0  0  0  0  0  0  0  0  0  0
   10.4148   12.4669   18.2139 H   0  0  0  0  0  0  0  0  0  0  0  0
   11.9798   10.0836   20.4813 H   0  0  0  0  0  0  0  0  0  0  0  0
   13.4288   15.3969   21.1750 H   0  0  0  0  0  0  0  0  0  0  0  0
   13.2257   14.3388   22.5955 H   0  0  0  0  0  0  0  0  0  0  0  0
   14.3398   12.6001   18.9230 H   0  0  0  0  0  0  0  0  0  0  0  0
   14.5624    9.7034   15.0329 H   0  0  0  0  0  0  0  0  0  0  0  0
   15.4068   13.3522   22.0954 H   0  0  0  0  0  0  0  0  0  0  0  0
    9.7850    9.6602   19.1297 H   0  0  0  0  0  0  0  0  0  0  0  0
    7.9270   10.4245   21.0962 H   0  0  0  0  0  0  0  0  0  0  0  0
  1 10  2  0
  1 14  1  0
  2  3  1  0
 15  2  1  0
  3 16  1  0
  3 31  2  0
  4 17  2  0
  4 18  1  0
  5  6  1  0
  5 18  2  0
  6 19  2  0
  6 26  1  0
  7  8  2  0
  7 23  1  0
  7 24  1  0
  8  9  1  0
  9 10  1  0
  9 21  2  0
 10 11  1  0
 11 12  2  0
 12 13  1  0
 13 14  2  0
 13 15  1  0
 15 20  1  0
 16 29  1  0
 17 19  1  0
 17 29  1  0
 18 25  1  0
 20 30  1  0
 20 33  2  0
 21 22  1  0
 22 23  2  0
 22 27  1  0
 23 28  1  0
 30 32  1  0
  1 34  1  0
  2 35  1  0
  4 36  1  0
  5 37  1  0
  8 38  1  0
 11 39  1  0
 12 40  1  0
 14 41  1  0
 15 42  1  1
 16 43  1  0
 16 44  1  0
 19 45  1  0
 21 46  1  0
 29 47  1  0
 30 48  1  0
 32 49  1  0
M  END
>  <filename_input>  (25) 
8EYE_X4I_docked.sdf

>  <pdb_id>  (25) 
8EYE_X4I

>  <pose_rank>  (25) 
24

>  <num_atoms_heavy>  (25) 
33

>  <num_torsions>  (25) 
7

>  <pose>  (25) 
[11.733020724735262, 11.111771262629633, 20.178113419140274, 3.077643636460904, -0.7359428091477879, 0.9528806844768298, 1.673300052964035, 4.199755372696152, -0.8885055906683432, -3.422543358373987, 0.9959669528400554, 2.839112354956978, -1.655347260673043]

>  <energy>  (25) 
-450.4190180540961

>  <inter_energy>  (25) 
-512.2535556636748

>  <intra_energy>  (25) 
67.48257932488603

>  <rmsd>  (25) 
8.72089

>  <sdf_rank>  (25) 
0

$$$$

     RDKit          3D

 49 51  0  0  0  0  0  0  0  0999 V2000
   13.1510   12.6720   15.3560 C   0  0  0  0  0  0  0  0  0  0  0  0
   15.0050    9.5610   12.0970 N   0  0  0  0  0  0  0  0  0  0  0  0
   16.4680    9.4600   12.1320 C   0  0  0  0  0  0  0  0  0  0  0  0
   14.8190    5.1890   13.0460 C   0  0  0  0  0  0  0  0  0  0  0  0
   14.5040    5.2100   15.4540 C   0  0  0  0  0  0  0  0  0  0  0  0
   15.1280    6.4380   15.5380 C   0  0  0  0  0  0  0  0  0  0  0  0
   11.3520   11.5680   19.6150 C   0  0  0  0  0  0  0  0  0  0  0  0
   11.5040   11.2800   18.2810 C   0  0  0  0  0  0  0  0  0  0  0  0
   12.6110   11.8330   17.6420 C   0  0  0  0  0  0  0  0  0  0  0  0
   12.9890   11.6070   16.1940 C   0  0  0  0  0  0  0  0  0  0  0  0
   13.2950   10.2950   15.7940 C   0  0  0  0  0  0  0  0  0  0  0  0
   13.7140   10.0650   14.4740 C   0  0  0  0  0  0  0  0  0  0  0  0
   13.8700   11.1490   13.6100 C   0  0  0  0  0  0  0  0  0  0  0  0
   13.5870   12.4360   14.0090 C   0  0  0  0  0  0  0  0  0  0  0  0
   14.3930   10.8730   12.2170 C   0  0  2  0  0  0  0  0  0  0  0  0
   17.0950    8.0220   11.9740 C   0  0  0  0  0  0  0  0  0  0  0  0
   15.4440    6.4170   13.1280 C   0  0  0  0  0  0  0  0  0  0  0  0
   14.3480    4.6100   14.2040 C   0  0  0  0  0  0  0  0  0  0  0  0
   15.6180    7.0440   14.3940 C   0  0  0  0  0  0  0  0  0  0  0  0
   13.4440   11.1880   11.0970 C   0  0  0  0  0  0  0  0  0  0  0  0
   13.5510   12.6100   18.3450 C   0  0  0  0  0  0  0  0  0  0  0  0
   13.3700   12.8840   19.6860 C   0  0  0  0  0  0  0  0  0  0  0  0
   12.2700   12.3470   20.3160 C   0  0  0  0  0  0  0  0  0  0  0  0
   10.2750   11.0740   20.2720 F   0  0  0  0  0  0  0  0  0  0  0  0
   13.7570    3.4100   14.1330 F   0  0  0  0  0  0  0  0  0  0  0  0
   15.2570    7.0090   16.7710 F   0  0  0  0  0  0  0  0  0  0  0  0
   14.2610   13.6460   20.4290 F   0  0  0  0  0  0  0  0  0  0  0  0
   12.1040   12.6190   21.6630 F   0  0  0  0  0  0  0  0  0  0  0  0
   15.9500    7.0290   11.8790 N   0  0  0  0  0  0  0  0  0  0  0  0
   13.7230   12.4400   10.4290 N   0  0  0  0  0  0  0  0  0  0  0  0
   17.1410   10.4050   12.2300 O   0  0  0  0  0  0  0  0  0  0  0  0
   12.8620   12.7830    9.3810 O   0  0  0  0  0  0  0  0  0  0  0  0
   12.5650   10.4400   10.7650 O   0  0  0  0  0  0  0  0  0  0  0  0
   12.9506   13.6949   15.7073 H   0  0  0  0  0  0  0  0  0  0  0  0
   14.4230    8.7180   11.9894 H   0  0  0  0  0  0  0  0  0  0  0  0
   14.6995    4.6833   12.0764 H   0  0  0  0  0  0  0  0  0  0  0  0
   14.1341    4.7103   16.3614 H   0  0  0  0  0  0  0  0  0  0  0  0
   10.7862   10.6433   17.7431 H   0  0  0  0  0  0  0  0  0  0  0  0
   13.2075    9.4602   16.5050 H   0  0  0  0  0  0  0  0  0  0  0  0
   13.9170    9.0417   14.1250 H   0  0  0  0  0  0  0  0  0  0  0  0
   13.6938   13.2735   13.3038 H   0  0  0  0  0  0  0  0  0  0  0  0
   15.1972   11.6116   12.0841 H   0  0  0  0  0  0  0  0  0  0  0  0
   17.7064    7.9778   11.0606 H   0  0  0  0  0  0  0  0  0  0  0  0
   17.7405    7.7858   12.8328 H   0  0  0  0  0  0  0  0  0  0  0  0
   16.1413    8.0091   14.4632 H   0  0  0  0  0  0  0  0  0  0  0  0
   14.4360   13.0016   17.8222 H   0  0  0  0  0  0  0  0  0  0  0  0
   15.5356    6.7873   10.9675 H   0  0  0  0  0  0  0  0  0  0  0  0
   14.5094   13.0437   10.7084 H   0  0  0  0  0  0  0  0  0  0  0  0
   12.0094   13.1227    9.7521 H   0  0  0  0  0  0  0  0  0  0  0  0
  1 10  2  0
  1 14  1  0
  2  3  1  0
 15  2  1  0
  3 16  1  0
  3 31  2  0
  4 17  2  0
  4 18  1  0
  5  6  1  0
  5 18  2  0
  6 19  2  0
  6 26  1  0
  7  8  2  0
  7 23  1  0
  7 24  1  0
  8  9  1  0
  9 10  1  0
  9 21  2  0
 10 11  1  0
 11 12  2  0
 12 13  1  0
 13 14  2  0
 13 15  1  0
 15 20  1  0
 16 29  1  0
 17 19  1  0
 17 29  1  0
 18 25  1  0
 20 30  1  0
 20 33  2  0
 21 22  1  0
 22 23  2  0
 22 27  1  0
 23 28  1  0
 30 32  1  0
  1 34  1  0
  2 35  1  0
  4 36  1  0
  5 37  1  0
  8 38  1  0
 11 39  1  0
 12 40  1  0
 14 41  1  0
 15 42  1  6
 16 43  1  0
 16 44  1  0
 19 45  1  0
 21 46  1  0
 29 47  1  0
 30 48  1  0
 32 49  1  0
M  END
>  <filename_input>  (26) 
8EYE_X4I_docked.sdf

>  <pdb_id>  (26) 
8EYE_X4I

>  <pose_rank>  (26) 
25

>  <num_atoms_heavy>  (26) 
33

>  <num_torsions>  (26) 
7

>  <pose>  (26) 
[14.393, 10.873, 12.217, 1e-06, 1e-06, 1e-06, 0.0, 0.0, 0.0, 0.0, 0.0, 0.0, 0.0]

>  <energy>  (26) 
-1173.487909118845

>  <inter_energy>  (26) 
-1194.4110487777118

>  <intra_energy>  (26) 
12.550852777687023

>  <rmsd>  (26) 
0.0

>  <sdf_rank>  (26) 
0

$$$$
