
     RDKit          3D

138143  0  0  0  0  0  0  0  0999 V2000
  -56.7206   63.9120  344.8320 C   0  0  0  0  0  0  0  0  0  0  0  0
  -54.8173   63.3277  349.2187 C   0  0  0  0  0  0  0  0  0  0  0  0
  -53.6871   58.6875  347.9945 C   0  0  0  0  0  0  0  0  0  0  0  0
  -55.4320   59.2888  343.4583 C   0  0  0  0  0  0  0  0  0  0  0  0
  -55.6311   63.3595  346.9223 N   0  0  0  0  0  0  0  0  0  0  0  0
  -56.4018   64.2274  346.1000 C   0  0  0  0  0  0  0  0  0  0  0  0
  -56.6915   65.5305  346.8109 C   0  0  2  0  0  0  0  0  0  0  0  0
  -55.7742   65.4323  348.0663 C   0  0  1  0  0  0  0  0  0  0  0  0
  -55.3986   63.9508  348.0737 C   0  0  0  0  0  0  0  0  0  0  0  0
  -54.5741   66.3184  347.8927 C   0  0  0  0  0  0  0  0  0  0  0  0
  -58.1478   65.7023  347.1684 C   0  0  0  0  0  0  0  0  0  0  0  0
  -58.2613   66.0201  348.6477 C   0  0  0  0  0  0  0  0  0  0  0  0
  -59.3883   66.9762  348.8654 C   0  0  0  0  0  0  0  0  0  0  0  0
  -59.4844   68.1385  348.4646 O   0  0  0  0  0  0  0  0  0  0  0  0
  -60.3949   66.4516  349.6209 O   0  0  0  0  0  0  0  0  0  0  0  0
  -54.4816   61.0463  348.2724 N   0  0  0  0  0  0  0  0  0  0  0  0
  -54.4273   62.0239  349.2714 C   0  0  0  0  0  0  0  0  0  0  0  0
  -53.8278   61.3775  350.4651 C   0  0  0  0  0  0  0  0  0  0  0  0
  -53.5025   60.0746  350.1340 C   0  0  0  0  0  0  0  0  0  0  0  0
  -53.9149   59.8285  348.7129 C   0  0  0  0  0  0  0  0  0  0  0  0
  -53.6159   62.1593  351.6820 C   0  0  0  0  0  0  0  0  0  0  0  0
  -52.8363   59.0453  350.8886 C   0  0  0  0  0  0  0  0  0  0  0  0
  -53.1200   58.6916  352.1400 C   0  0  0  0  0  0  0  0  0  0  0  0
  -54.7758   59.2265  345.8481 N   0  0  0  0  0  0  0  0  0  0  0  0
  -54.0952   58.3999  346.6401 C   0  0  0  0  0  0  0  0  0  0  0  0
  -53.6996   57.1701  345.8793 C   0  0  0  0  0  0  0  0  0  0  0  0
  -54.1410   57.3671  344.5816 C   0  0  0  0  0  0  0  0  0  0  0  0
  -54.8559   58.6762  344.5423 C   0  0  0  0  0  0  0  0  0  0  0  0
  -52.9104   56.0593  346.4217 C   0  0  0  0  0  0  0  0  0  0  0  0
  -54.0039   56.4685  343.4203 C   0  0  0  0  0  0  0  0  0  0  0  0
  -55.2460   55.6090  343.2113 C   0  0  0  0  0  0  0  0  0  0  0  0
  -56.1040   61.3930  344.6097 N   0  0  0  0  0  0  0  0  0  0  0  0
  -56.0288   60.5844  343.4514 C   0  0  0  0  0  0  0  0  0  0  0  0
  -56.5938   61.3192  342.3452 C   0  0  0  0  0  0  0  0  0  0  0  0
  -56.8984   62.6069  342.8410 C   0  0  0  0  0  0  0  0  0  0  0  0
  -56.5254   62.6212  344.2366 C   0  0  0  0  0  0  0  0  0  0  0  0
  -56.7942   60.8576  340.9686 C   0  0  0  0  0  0  0  0  0  0  0  0
  -57.3957   63.9142  342.4688 C   0  0  0  0  0  0  0  0  0  0  0  0
  -57.8170   64.3115  341.3945 O   0  0  0  0  0  0  0  0  0  0  0  0
  -57.2534   64.8167  343.7359 C   0  0  2  0  0  0  0  0  0  0  0  0
  -56.3367   65.9662  343.4155 C   0  0  0  0  0  0  0  0  0  0  0  0
  -56.6076   67.1569  343.3097 O   0  0  0  0  0  0  0  0  0  0  0  0
  -55.0311   65.5712  343.2100 O   0  0  0  0  0  0  0  0  0  0  0  0
  -54.0302   66.3432  343.8622 C   0  0  0  0  0  0  0  0  0  0  0  0
  -61.2840   67.3828  350.2852 C   0  0  0  0  0  0  0  0  0  0  0  0
  -60.8650   67.5072  351.7066 C   0  0  0  0  0  0  0  0  0  0  0  0
  -61.6157   66.9688  352.6712 C   0  0  0  0  0  0  0  0  0  0  0  0
  -62.8521   66.2619  352.2930 C   0  0  0  0  0  0  0  0  0  0  0  0
  -61.2809   67.0405  354.1308 C   0  0  0  0  0  0  0  0  0  0  0  0
  -60.3698   65.9239  354.6558 C   0  0  0  0  0  0  0  0  0  0  0  0
  -61.1835   64.8145  355.3130 C   0  0  0  0  0  0  0  0  0  0  0  0
  -60.5850   63.4217  355.1401 C   0  0  2  0  0  0  0  0  0  0  0  0
  -61.4983   62.5669  354.3054 C   0  0  0  0  0  0  0  0  0  0  0  0
  -60.2850   62.7301  356.4713 C   0  0  0  0  0  0  0  0  0  0  0  0
  -59.6363   63.6538  357.4992 C   0  0  0  0  0  0  0  0  0  0  0  0
  -58.1169   63.7167  357.4042 C   0  0  0  0  0  0  0  0  0  0  0  0
  -57.4432   63.4056  358.7389 C   0  0  2  0  0  0  0  0  0  0  0  0
  -58.3816   63.5894  359.9289 C   0  0  0  0  0  0  0  0  0  0  0  0
  -56.2326   64.2988  358.9306 C   0  0  0  0  0  0  0  0  0  0  0  0
  -54.9126   63.5560  358.8947 C   0  0  0  0  0  0  0  0  0  0  0  0
  -55.1654   62.0615  359.0747 C   0  0  0  0  0  0  0  0  0  0  0  0
  -54.1396   61.4241  360.0021 C   0  0  2  0  0  0  0  0  0  0  0  0
  -52.9396   62.3281  360.1539 C   0  0  0  0  0  0  0  0  0  0  0  0
  -53.7095   60.1035  359.4133 C   0  0  0  0  0  0  0  0  0  0  0  0
  -54.6745   63.9423  350.1197 H   0  0  0  0  0  0  0  0  0  0  0  0
  -53.1259   57.8943  348.5102 H   0  0  0  0  0  0  0  0  0  0  0  0
  -55.4338   58.7312  342.5100 H   0  0  0  0  0  0  0  0  0  0  0  0
  -56.4905   66.4138  346.1870 H   0  0  0  0  0  0  0  0  0  0  0  0
  -56.2424   65.7570  349.0072 H   0  0  0  0  0  0  0  0  0  0  0  0
  -54.1846   66.6059  348.8804 H   0  0  0  0  0  0  0  0  0  0  0  0
  -53.7958   65.7765  347.3352 H   0  0  0  0  0  0  0  0  0  0  0  0
  -54.8628   67.2216  347.3352 H   0  0  0  0  0  0  0  0  0  0  0  0
  -58.5767   66.5271  346.5804 H   0  0  0  0  0  0  0  0  0  0  0  0
  -58.6963   64.7753  346.9452 H   0  0  0  0  0  0  0  0  0  0  0  0
  -58.4529   65.0933  349.2084 H   0  0  0  0  0  0  0  0  0  0  0  0
  -57.3224   66.4731  348.9990 H   0  0  0  0  0  0  0  0  0  0  0  0
  -54.8831   61.1948  347.3355 H   0  0  0  0  0  0  0  0  0  0  0  0
  -53.7886   61.5222  352.5619 H   0  0  0  0  0  0  0  0  0  0  0  0
  -52.5829   62.5370  351.6999 H   0  0  0  0  0  0  0  0  0  0  0  0
  -54.3166   63.0071  351.6999 H   0  0  0  0  0  0  0  0  0  0  0  0
  -52.0210   58.5035  350.3868 H   0  0  0  0  0  0  0  0  0  0  0  0
  -52.5480   57.8885  352.6277 H   0  0  0  0  0  0  0  0  0  0  0  0
  -53.9265   59.2023  352.6865 H   0  0  0  0  0  0  0  0  0  0  0  0
  -52.9352   56.0942  347.5209 H   0  0  0  0  0  0  0  0  0  0  0  0
  -53.3342   55.1050  346.0756 H   0  0  0  0  0  0  0  0  0  0  0  0
  -51.8698   56.1454  346.0756 H   0  0  0  0  0  0  0  0  0  0  0  0
  -53.8373   57.0765  342.5189 H   0  0  0  0  0  0  0  0  0  0  0  0
  -53.1543   55.7961  343.6103 H   0  0  0  0  0  0  0  0  0  0  0  0
  -55.6616   55.3215  344.1883 H   0  0  0  0  0  0  0  0  0  0  0  0
  -55.9973   56.1814  342.6474 H   0  0  0  0  0  0  0  0  0  0  0  0
  -54.9752   54.7042  342.6474 H   0  0  0  0  0  0  0  0  0  0  0  0
  -55.8771   61.0971  345.5699 H   0  0  0  0  0  0  0  0  0  0  0  0
  -57.2321   59.8486  340.9803 H   0  0  0  0  0  0  0  0  0  0  0  0
  -57.4743   61.5464  340.4462 H   0  0  0  0  0  0  0  0  0  0  0  0
  -55.8265   60.8312  340.4462 H   0  0  0  0  0  0  0  0  0  0  0  0
  -58.2026   65.2643  344.0656 H   0  0  0  0  0  0  0  0  0  0  0  0
  -54.1488   66.2518  344.9520 H   0  0  0  0  0  0  0  0  0  0  0  0
  -53.0354   65.9763  343.5695 H   0  0  0  0  0  0  0  0  0  0  0  0
  -54.1325   67.3986  343.5695 H   0  0  0  0  0  0  0  0  0  0  0  0
  -61.2254   68.3654  349.7943 H   0  0  0  0  0  0  0  0  0  0  0  0
  -62.3202   67.0179  350.2294 H   0  0  0  0  0  0  0  0  0  0  0  0
  -59.9385   68.0417  351.9632 H   0  0  0  0  0  0  0  0  0  0  0  0
  -63.3908   65.9540  353.2013 H   0  0  0  0  0  0  0  0  0  0  0  0
  -63.4900   66.9318  351.6978 H   0  0  0  0  0  0  0  0  0  0  0  0
  -62.5984   65.3724  351.6978 H   0  0  0  0  0  0  0  0  0  0  0  0
  -60.7799   68.0020  354.3165 H   0  0  0  0  0  0  0  0  0  0  0  0
  -62.2357   66.9271  354.6652 H   0  0  0  0  0  0  0  0  0  0  0  0
  -59.7990   65.5013  353.8157 H   0  0  0  0  0  0  0  0  0  0  0  0
  -59.6910   66.3518  355.4082 H   0  0  0  0  0  0  0  0  0  0  0  0
  -61.2553   65.0292  356.3894 H   0  0  0  0  0  0  0  0  0  0  0  0
  -62.1655   64.8032  354.8175 H   0  0  0  0  0  0  0  0  0  0  0  0
  -59.6211   63.5510  354.6262 H   0  0  0  0  0  0  0  0  0  0  0  0
  -62.1412   61.9651  354.9645 H   0  0  0  0  0  0  0  0  0  0  0  0
  -62.1246   63.2109  353.6705 H   0  0  0  0  0  0  0  0  0  0  0  0
  -60.8970   61.8995  353.6705 H   0  0  0  0  0  0  0  0  0  0  0  0
  -61.2298   62.3519  356.8889 H   0  0  0  0  0  0  0  0  0  0  0  0
  -59.5699   61.9204  356.2638 H   0  0  0  0  0  0  0  0  0  0  0  0
  -60.0344   64.6686  357.3522 H   0  0  0  0  0  0  0  0  0  0  0  0
  -59.8764   63.2442  358.4915 H   0  0  0  0  0  0  0  0  0  0  0  0
  -57.7778   62.9842  356.6568 H   0  0  0  0  0  0  0  0  0  0  0  0
  -57.8382   64.7408  357.1152 H   0  0  0  0  0  0  0  0  0  0  0  0
  -57.1446   62.3475  358.7020 H   0  0  0  0  0  0  0  0  0  0  0  0
  -57.8137   63.4782  360.8644 H   0  0  0  0  0  0  0  0  0  0  0  0
  -58.8310   64.5927  359.8899 H   0  0  0  0  0  0  0  0  0  0  0  0
  -59.1763   62.8299  359.8899 H   0  0  0  0  0  0  0  0  0  0  0  0
  -56.2280   65.0531  358.1300 H   0  0  0  0  0  0  0  0  0  0  0  0
  -56.3207   64.7473  359.9312 H   0  0  0  0  0  0  0  0  0  0  0  0
  -54.4197   63.7307  357.9270 H   0  0  0  0  0  0  0  0  0  0  0  0
  -54.2651   63.9190  359.7065 H   0  0  0  0  0  0  0  0  0  0  0  0
  -56.1691   61.9186  359.5015 H   0  0  0  0  0  0  0  0  0  0  0  0
  -55.0834   61.5789  358.0896 H   0  0  0  0  0  0  0  0  0  0  0  0
  -54.5880   61.2675  360.9944 H   0  0  0  0  0  0  0  0  0  0  0  0
  -52.7314   62.4849  361.2226 H   0  0  0  0  0  0  0  0  0  0  0  0
  -52.0662   61.8616  359.6748 H   0  0  0  0  0  0  0  0  0  0  0  0
  -53.1470   63.2963  359.6748 H   0  0  0  0  0  0  0  0  0  0  0  0
  -53.4795   59.3976  360.2250 H   0  0  0  0  0  0  0  0  0  0  0  0
  -54.5216   59.6968  358.7928 H   0  0  0  0  0  0  0  0  0  0  0  0
  -52.8136   60.2532  358.7928 H   0  0  0  0  0  0  0  0  0  0  0  0
  1  6  1  0
  1 36  2  0
  1 40  1  0
  2  9  2  0
  2 17  1  0
  3 20  1  0
  3 25  2  0
  4 28  1  0
  4 33  2  0
  5  6  2  0
  5  9  1  0
  6  7  1  0
  7  8  1  0
  7 11  1  0
  8  9  1  0
  8 10  1  0
 11 12  1  0
 12 13  1  0
 13 14  2  0
 13 15  1  0
 15 45  1  0
 16 17  1  0
 16 20  1  0
 17 18  2  0
 18 19  1  0
 18 21  1  0
 19 20  2  0
 19 22  1  0
 22 23  2  0
 24 25  1  0
 24 28  2  0
 25 26  1  0
 26 27  2  0
 26 29  1  0
 27 28  1  0
 27 30  1  0
 30 31  1  0
 32 33  1  0
 32 36  1  0
 33 34  1  0
 34 35  2  0
 34 37  1  0
 35 36  1  0
 35 38  1  0
 38 39  2  0
 38 40  1  0
 40 41  1  0
 41 42  2  0
 41 43  1  0
 43 44  1  0
 45 46  1  0
 46 47  2  3
 47 48  1  0
 47 49  1  0
 49 50  1  0
 50 51  1  0
 51 52  1  0
 52 53  1  0
 52 54  1  0
 54 55  1  0
 55 56  1  0
 56 57  1  0
 57 58  1  0
 57 59  1  0
 59 60  1  0
 60 61  1  0
 61 62  1  0
 62 63  1  0
 62 64  1  0
  2 65  1  0
  3 66  1  0
  4 67  1  0
  7 68  1  6
  8 69  1  1
 10 70  1  0
 10 71  1  0
 10 72  1  0
 11 73  1  0
 11 74  1  0
 12 75  1  0
 12 76  1  0
 16 77  1  0
 21 78  1  0
 21 79  1  0
 21 80  1  0
 22 81  1  0
 23 82  1  0
 23 83  1  0
 29 84  1  0
 29 85  1  0
 29 86  1  0
 30 87  1  0
 30 88  1  0
 31 89  1  0
 31 90  1  0
 31 91  1  0
 32 92  1  0
 37 93  1  0
 37 94  1  0
 37 95  1  0
 40 96  1  1
 44 97  1  0
 44 98  1  0
 44 99  1  0
 45100  1  0
 45101  1  0
 46102  1  0
 48103  1  0
 48104  1  0
 48105  1  0
 49106  1  0
 49107  1  0
 50108  1  0
 50109  1  0
 51110  1  0
 51111  1  0
 52112  1  6
 53113  1  0
 53114  1  0
 53115  1  0
 54116  1  0
 54117  1  0
 55118  1  0
 55119  1  0
 56120  1  0
 56121  1  0
 57122  1  6
 58123  1  0
 58124  1  0
 58125  1  0
 59126  1  0
 59127  1  0
 60128  1  0
 60129  1  0
 61130  1  0
 61131  1  0
 62132  1  1
 63133  1  0
 63134  1  0
 63135  1  0
 64136  1  0
 64137  1  0
 64138  1  0
M  END
>  <filename_input>  (1) 
8F4J_PHO_docked.sdf

>  <pdb_id>  (1) 
8F4J_PHO

>  <pose_rank>  (1) 
0

>  <num_atoms_heavy>  (1) 
64

>  <num_torsions>  (1) 
22

>  <pose>  (1) 
[-56.72058288973574, 63.912049065797014, 344.83198764642475, -5.389195657771815, -3.1308241986506475, 0.7245524308027761, 0.4366784433893107, -0.2262523449405869, -5.875902954069911, 0.931585544437441, 18.03558907000626, 99.82009237187496, 80.2963761053624, 24.489355992972826, 9.421117738380515, 94.7502738735682, 113.56070805595958, 76.58821368522756, -70.02066948624719, 74.41191542045841, -31.089853914900655, 18.486022706943828, 19.679331771764666, 13.479231829378955, -13.209116567444553, 21.634904036792587, 13.425633795713349, -3.412662636654628]

>  <energy>  (1) 
-919.7223353179721

>  <inter_energy>  (1) 
-922.2645626483294

>  <intra_energy>  (1) 
6.240649212159798

>  <rmsd>  (1) 
0.811961

>  <sdf_rank>  (1) 
0

$$$$

     RDKit          3D

138143  0  0  0  0  0  0  0  0999 V2000
  -56.6553   63.8939  344.7984 C   0  0  0  0  0  0  0  0  0  0  0  0
  -54.8933   63.1875  349.2259 C   0  0  0  0  0  0  0  0  0  0  0  0
  -53.9253   58.5163  347.9808 C   0  0  0  0  0  0  0  0  0  0  0  0
  -55.5245   59.2344  343.4080 C   0  0  0  0  0  0  0  0  0  0  0  0
  -55.6448   63.2758  346.9099 N   0  0  0  0  0  0  0  0  0  0  0  0
  -56.3570   64.1831  346.0775 C   0  0  0  0  0  0  0  0  0  0  0  0
  -56.6108   65.4902  346.7949 C   0  0  2  0  0  0  0  0  0  0  0  0
  -55.7315   65.3414  348.0723 C   0  0  1  0  0  0  0  0  0  0  0  0
  -55.4181   63.8455  348.0733 C   0  0  0  0  0  0  0  0  0  0  0  0
  -54.4914   66.1782  347.9392 C   0  0  0  0  0  0  0  0  0  0  0  0
  -58.0675   65.7193  347.1167 C   0  0  0  0  0  0  0  0  0  0  0  0
  -58.1737   66.4512  348.4415 C   0  0  0  0  0  0  0  0  0  0  0  0
  -59.5957   66.4465  348.8991 C   0  0  0  0  0  0  0  0  0  0  0  0
  -60.5659   65.9158  348.3533 O   0  0  0  0  0  0  0  0  0  0  0  0
  -59.7870   67.1446  350.0547 O   0  0  0  0  0  0  0  0  0  0  0  0
  -54.6281   60.9034  348.2638 N   0  0  0  0  0  0  0  0  0  0  0  0
  -54.5594   61.8680  349.2745 C   0  0  0  0  0  0  0  0  0  0  0  0
  -54.0187   61.1854  350.4761 C   0  0  0  0  0  0  0  0  0  0  0  0
  -53.7393   59.8734  350.1394 C   0  0  0  0  0  0  0  0  0  0  0  0
  -54.1242   59.6587  348.7055 C   0  0  0  0  0  0  0  0  0  0  0  0
  -53.8063   61.9458  351.7065 C   0  0  0  0  0  0  0  0  0  0  0  0
  -53.1363   58.8098  350.8996 C   0  0  0  0  0  0  0  0  0  0  0  0
  -52.0544   58.9193  351.6671 C   0  0  0  0  0  0  0  0  0  0  0  0
  -54.9342   59.1213  345.8131 N   0  0  0  0  0  0  0  0  0  0  0  0
  -54.3095   58.2593  346.6133 C   0  0  0  0  0  0  0  0  0  0  0  0
  -53.9456   57.0215  345.8496 C   0  0  0  0  0  0  0  0  0  0  0  0
  -54.3444   57.2495  344.5432 C   0  0  0  0  0  0  0  0  0  0  0  0
  -55.0030   58.5876  344.4998 C   0  0  0  0  0  0  0  0  0  0  0  0
  -53.2177   55.8734  346.4000 C   0  0  0  0  0  0  0  0  0  0  0  0
  -54.2144   56.3574  343.3761 C   0  0  0  0  0  0  0  0  0  0  0  0
  -55.4994   55.5842  343.1003 C   0  0  0  0  0  0  0  0  0  0  0  0
  -56.1384   61.3535  344.5647 N   0  0  0  0  0  0  0  0  0  0  0  0
  -56.0666   60.5539  343.3999 C   0  0  0  0  0  0  0  0  0  0  0  0
  -56.5715   61.3225  342.2876 C   0  0  0  0  0  0  0  0  0  0  0  0
  -56.8351   62.6168  342.7894 C   0  0  0  0  0  0  0  0  0  0  0  0
  -56.4985   62.6019  344.1942 C   0  0  0  0  0  0  0  0  0  0  0  0
  -56.7548   60.8831  340.9014 C   0  0  0  0  0  0  0  0  0  0  0  0
  -57.2678   63.9474  342.4188 C   0  0  0  0  0  0  0  0  0  0  0  0
  -57.6439   64.3725  341.3384 O   0  0  0  0  0  0  0  0  0  0  0  0
  -57.1213   64.8307  343.6989 C   0  0  2  0  0  0  0  0  0  0  0  0
  -56.1495   65.9439  343.4146 C   0  0  0  0  0  0  0  0  0  0  0  0
  -54.9522   65.8711  343.1624 O   0  0  0  0  0  0  0  0  0  0  0  0
  -56.7319   67.1930  343.4702 O   0  0  0  0  0  0  0  0  0  0  0  0
  -56.9628   67.8356  342.2225 C   0  0  0  0  0  0  0  0  0  0  0  0
  -61.0581   66.9798  350.7300 C   0  0  0  0  0  0  0  0  0  0  0  0
  -60.8175   66.3167  352.0391 C   0  0  0  0  0  0  0  0  0  0  0  0
  -61.8393   66.0938  352.8699 C   0  0  0  0  0  0  0  0  0  0  0  0
  -63.1892   66.5192  352.4600 C   0  0  0  0  0  0  0  0  0  0  0  0
  -61.7005   65.4349  354.2094 C   0  0  0  0  0  0  0  0  0  0  0  0
  -62.2825   64.0196  354.3134 C   0  0  0  0  0  0  0  0  0  0  0  0
  -61.5941   63.2224  355.4159 C   0  0  0  0  0  0  0  0  0  0  0  0
  -60.5822   62.2022  354.9032 C   0  0  2  0  0  0  0  0  0  0  0  0
  -59.1871   62.7488  355.0316 C   0  0  0  0  0  0  0  0  0  0  0  0
  -60.8485   61.7684  353.4605 C   0  0  0  0  0  0  0  0  0  0  0  0
  -60.3044   60.3791  353.1372 C   0  0  0  0  0  0  0  0  0  0  0  0
  -61.0921   59.6397  352.0628 C   0  0  0  0  0  0  0  0  0  0  0  0
  -60.2430   58.5936  351.3438 C   0  0  2  0  0  0  0  0  0  0  0  0
  -60.8119   58.2096  349.9802 C   0  0  0  0  0  0  0  0  0  0  0  0
  -60.1294   57.3428  352.1940 C   0  0  0  0  0  0  0  0  0  0  0  0
  -60.7872   56.1240  351.5799 C   0  0  0  0  0  0  0  0  0  0  0  0
  -59.8138   54.9488  351.6159 C   0  0  0  0  0  0  0  0  0  0  0  0
  -60.1341   53.9186  350.5414 C   0  0  2  0  0  0  0  0  0  0  0  0
  -59.6474   54.3992  349.1951 C   0  0  0  0  0  0  0  0  0  0  0  0
  -61.6280   53.7134  350.4977 C   0  0  0  0  0  0  0  0  0  0  0  0
  -54.7487   63.7867  350.1370 H   0  0  0  0  0  0  0  0  0  0  0  0
  -53.4113   57.6952  348.5021 H   0  0  0  0  0  0  0  0  0  0  0  0
  -55.5248   58.6867  342.4541 H   0  0  0  0  0  0  0  0  0  0  0  0
  -56.3570   66.3704  346.1860 H   0  0  0  0  0  0  0  0  0  0  0  0
  -56.2102   65.6762  349.0044 H   0  0  0  0  0  0  0  0  0  0  0  0
  -54.1125   66.4338  348.9398 H   0  0  0  0  0  0  0  0  0  0  0  0
  -53.7244   65.6123  347.3903 H   0  0  0  0  0  0  0  0  0  0  0  0
  -54.7291   67.1013  347.3903 H   0  0  0  0  0  0  0  0  0  0  0  0
  -58.5293   66.3250  346.3230 H   0  0  0  0  0  0  0  0  0  0  0  0
  -58.5887   64.7529  347.1842 H   0  0  0  0  0  0  0  0  0  0  0  0
  -57.5455   65.9470  349.1906 H   0  0  0  0  0  0  0  0  0  0  0  0
  -57.8319   67.4892  348.3159 H   0  0  0  0  0  0  0  0  0  0  0  0
  -54.9984   61.0777  347.3186 H   0  0  0  0  0  0  0  0  0  0  0  0
  -53.9879   61.2958  352.5751 H   0  0  0  0  0  0  0  0  0  0  0  0
  -52.7705   62.3151  351.7351 H   0  0  0  0  0  0  0  0  0  0  0  0
  -54.5006   62.7985  351.7351 H   0  0  0  0  0  0  0  0  0  0  0  0
  -53.6116   57.8195  350.8410 H   0  0  0  0  0  0  0  0  0  0  0  0
  -51.6731   58.0411  352.2087 H   0  0  0  0  0  0  0  0  0  0  0  0
  -51.5416   59.8880  351.7598 H   0  0  0  0  0  0  0  0  0  0  0  0
  -53.2441   55.9150  347.4989 H   0  0  0  0  0  0  0  0  0  0  0  0
  -53.6900   54.9410  346.0570 H   0  0  0  0  0  0  0  0  0  0  0  0
  -52.1729   55.9029  346.0570 H   0  0  0  0  0  0  0  0  0  0  0  0
  -53.9682   56.9635  342.4918 H   0  0  0  0  0  0  0  0  0  0  0  0
  -53.4200   55.6283  343.5935 H   0  0  0  0  0  0  0  0  0  0  0  0
  -55.9692   55.3015  344.0539 H   0  0  0  0  0  0  0  0  0  0  0  0
  -56.1911   56.2162  342.5239 H   0  0  0  0  0  0  0  0  0  0  0  0
  -55.2650   54.6771  342.5239 H   0  0  0  0  0  0  0  0  0  0  0  0
  -55.9492   61.0390  345.5270 H   0  0  0  0  0  0  0  0  0  0  0  0
  -57.1784   59.8680  340.8915 H   0  0  0  0  0  0  0  0  0  0  0  0
  -57.4407   61.5717  340.3862 H   0  0  0  0  0  0  0  0  0  0  0  0
  -55.7829   60.8800  340.3862 H   0  0  0  0  0  0  0  0  0  0  0  0
  -58.0593   65.3144  344.0089 H   0  0  0  0  0  0  0  0  0  0  0  0
  -57.3300   68.8574  342.3987 H   0  0  0  0  0  0  0  0  0  0  0  0
  -56.0233   67.8769  341.6519 H   0  0  0  0  0  0  0  0  0  0  0  0
  -57.7137   67.2695  341.6519 H   0  0  0  0  0  0  0  0  0  0  0  0
  -61.5216   67.9640  350.8927 H   0  0  0  0  0  0  0  0  0  0  0  0
  -61.7329   66.3653  350.1159 H   0  0  0  0  0  0  0  0  0  0  0  0
  -59.7998   66.0104  352.3228 H   0  0  0  0  0  0  0  0  0  0  0  0
  -63.8002   66.7117  353.3541 H   0  0  0  0  0  0  0  0  0  0  0  0
  -63.1176   67.4383  351.8599 H   0  0  0  0  0  0  0  0  0  0  0  0
  -63.6574   65.7250  351.8599 H   0  0  0  0  0  0  0  0  0  0  0  0
  -60.6286   65.3790  354.4500 H   0  0  0  0  0  0  0  0  0  0  0  0
  -62.2812   66.0521  354.9108 H   0  0  0  0  0  0  0  0  0  0  0  0
  -63.3572   64.0887  354.5375 H   0  0  0  0  0  0  0  0  0  0  0  0
  -62.1195   63.5037  353.3556 H   0  0  0  0  0  0  0  0  0  0  0  0
  -61.0697   63.9278  356.0772 H   0  0  0  0  0  0  0  0  0  0  0  0
  -62.3798   62.6571  355.9385 H   0  0  0  0  0  0  0  0  0  0  0  0
  -60.6906   61.3040  355.5289 H   0  0  0  0  0  0  0  0  0  0  0  0
  -58.9294   62.8497  356.0962 H   0  0  0  0  0  0  0  0  0  0  0  0
  -58.4781   62.0619  354.5462 H   0  0  0  0  0  0  0  0  0  0  0  0
  -59.1333   63.7344  354.5462 H   0  0  0  0  0  0  0  0  0  0  0  0
  -61.9355   61.7656  353.2918 H   0  0  0  0  0  0  0  0  0  0  0  0
  -60.3290   62.4824  352.8045 H   0  0  0  0  0  0  0  0  0  0  0  0
  -59.2654   60.4862  352.7924 H   0  0  0  0  0  0  0  0  0  0  0  0
  -60.3858   59.7833  354.0583 H   0  0  0  0  0  0  0  0  0  0  0  0
  -61.9494   59.1371  352.5345 H   0  0  0  0  0  0  0  0  0  0  0  0
  -61.4222   60.3779  351.3171 H   0  0  0  0  0  0  0  0  0  0  0  0
  -59.2536   59.0469  351.1838 H   0  0  0  0  0  0  0  0  0  0  0  0
  -61.7164   57.5991  350.1189 H   0  0  0  0  0  0  0  0  0  0  0  0
  -61.0670   59.1210  349.4196 H   0  0  0  0  0  0  0  0  0  0  0  0
  -60.0621   57.6321  349.4196 H   0  0  0  0  0  0  0  0  0  0  0  0
  -59.0625   57.1220  352.3452 H   0  0  0  0  0  0  0  0  0  0  0  0
  -60.6547   57.5487  353.1383 H   0  0  0  0  0  0  0  0  0  0  0  0
  -61.6919   55.8685  352.1511 H   0  0  0  0  0  0  0  0  0  0  0  0
  -61.0615   56.3414  350.5371 H   0  0  0  0  0  0  0  0  0  0  0  0
  -58.7932   55.3263  351.4548 H   0  0  0  0  0  0  0  0  0  0  0  0
  -59.9031   54.4597  352.5972 H   0  0  0  0  0  0  0  0  0  0  0  0
  -59.6291   52.9706  350.7784 H   0  0  0  0  0  0  0  0  0  0  0  0
  -58.8714   55.1656  349.3380 H   0  0  0  0  0  0  0  0  0  0  0  0
  -59.2271   53.5520  348.6333 H   0  0  0  0  0  0  0  0  0  0  0  0
  -60.4893   54.8301  348.6333 H   0  0  0  0  0  0  0  0  0  0  0  0
  -62.0208   53.6594  351.5237 H   0  0  0  0  0  0  0  0  0  0  0  0
  -62.0985   54.5554  349.9688 H   0  0  0  0  0  0  0  0  0  0  0  0
  -61.8541   52.7758  349.9688 H   0  0  0  0  0  0  0  0  0  0  0  0
  1  6  1  0
  1 36  2  0
  1 40  1  0
  2  9  2  0
  2 17  1  0
  3 20  1  0
  3 25  2  0
  4 28  1  0
  4 33  2  0
  5  6  2  0
  5  9  1  0
  6  7  1  0
  7  8  1  0
  7 11  1  0
  8  9  1  0
  8 10  1  0
 11 12  1  0
 12 13  1  0
 13 14  2  0
 13 15  1  0
 15 45  1  0
 16 17  1  0
 16 20  1  0
 17 18  2  0
 18 19  1  0
 18 21  1  0
 19 20  2  0
 19 22  1  0
 22 23  2  0
 24 25  1  0
 24 28  2  0
 25 26  1  0
 26 27  2  0
 26 29  1  0
 27 28  1  0
 27 30  1  0
 30 31  1  0
 32 33  1  0
 32 36  1  0
 33 34  1  0
 34 35  2  0
 34 37  1  0
 35 36  1  0
 35 38  1  0
 38 39  2  0
 38 40  1  0
 40 41  1  0
 41 42  2  0
 41 43  1  0
 43 44  1  0
 45 46  1  0
 46 47  2  3
 47 48  1  0
 47 49  1  0
 49 50  1  0
 50 51  1  0
 51 52  1  0
 52 53  1  0
 52 54  1  0
 54 55  1  0
 55 56  1  0
 56 57  1  0
 57 58  1  0
 57 59  1  0
 59 60  1  0
 60 61  1  0
 61 62  1  0
 62 63  1  0
 62 64  1  0
  2 65  1  0
  3 66  1  0
  4 67  1  0
  7 68  1  6
  8 69  1  1
 10 70  1  0
 10 71  1  0
 10 72  1  0
 11 73  1  0
 11 74  1  0
 12 75  1  0
 12 76  1  0
 16 77  1  0
 21 78  1  0
 21 79  1  0
 21 80  1  0
 22 81  1  0
 23 82  1  0
 23 83  1  0
 29 84  1  0
 29 85  1  0
 29 86  1  0
 30 87  1  0
 30 88  1  0
 31 89  1  0
 31 90  1  0
 31 91  1  0
 32 92  1  0
 37 93  1  0
 37 94  1  0
 37 95  1  0
 40 96  1  1
 44 97  1  0
 44 98  1  0
 44 99  1  0
 45100  1  0
 45101  1  0
 46102  1  0
 48103  1  0
 48104  1  0
 48105  1  0
 49106  1  0
 49107  1  0
 50108  1  0
 50109  1  0
 51110  1  0
 51111  1  0
 52112  1  1
 53113  1  0
 53114  1  0
 53115  1  0
 54116  1  0
 54117  1  0
 55118  1  0
 55119  1  0
 56120  1  0
 56121  1  0
 57122  1  6
 58123  1  0
 58124  1  0
 58125  1  0
 59126  1  0
 59127  1  0
 60128  1  0
 60129  1  0
 61130  1  0
 61131  1  0
 62132  1  1
 63133  1  0
 63134  1  0
 63135  1  0
 64136  1  0
 64137  1  0
 64138  1  0
M  END
>  <filename_input>  (2) 
8F4J_PHO_docked.sdf

>  <pdb_id>  (2) 
8F4J_PHO

>  <pose_rank>  (2) 
1

>  <num_atoms_heavy>  (2) 
64

>  <num_torsions>  (2) 
22

>  <pose>  (2) 
[-56.655336332710796, 63.89385764596652, 344.7983917673852, -2.1760442997903082, 2.6604922732649547, 5.198660141053438, 5.1065569684104295, -0.19581776387749458, -2.667862101222087, 1.4257164975350136, -0.49696540473233264, 0.09904051046362844, 6.063087956784468, -6.33939496449711, 0.5935582757781994, -0.786631003799799, 0.08356729852225203, -0.6871703182974795, 1.0139371972597775, -3.519532716016387, -1.6129222790193065, -8.77463724354578, 5.739939829796176, -1.5140896543065776, -2.9613971490635995, -0.9352665420756457, 0.5560861717008512, -1.7648372559000423]

>  <energy>  (2) 
-794.8052075764465

>  <inter_energy>  (2) 
-794.4669265454985

>  <intra_energy>  (2) 
3.5126379465268585

>  <rmsd>  (2) 
4.55163

>  <sdf_rank>  (2) 
0

$$$$

     RDKit          3D

138143  0  0  0  0  0  0  0  0999 V2000
  -56.2482   63.7646  345.8036 C   0  0  0  0  0  0  0  0  0  0  0  0
  -53.9657   62.8118  349.9375 C   0  0  0  0  0  0  0  0  0  0  0  0
  -53.2628   58.1931  348.3621 C   0  0  0  0  0  0  0  0  0  0  0  0
  -55.4016   59.1623  344.0644 C   0  0  0  0  0  0  0  0  0  0  0  0
  -54.9970   63.0267  347.7405 N   0  0  0  0  0  0  0  0  0  0  0  0
  -55.7870   63.9854  347.0476 C   0  0  0  0  0  0  0  0  0  0  0  0
  -55.9208   65.2591  347.8519 C   0  0  2  0  0  0  0  0  0  0  0  0
  -54.8931   65.0333  349.0007 C   0  0  1  0  0  0  0  0  0  0  0  0
  -54.6150   63.5344  348.8919 C   0  0  0  0  0  0  0  0  0  0  0  0
  -53.6611   65.8557  348.7531 C   0  0  0  0  0  0  0  0  0  0  0  0
  -57.3209   65.4952  348.3639 C   0  0  0  0  0  0  0  0  0  0  0  0
  -58.0305   66.4658  347.4385 C   0  0  0  0  0  0  0  0  0  0  0  0
  -59.3640   65.9080  347.0614 C   0  0  0  0  0  0  0  0  0  0  0  0
  -59.7176   65.4634  345.9668 O   0  0  0  0  0  0  0  0  0  0  0  0
  -60.2638   65.9371  348.0856 O   0  0  0  0  0  0  0  0  0  0  0  0
  -53.8724   60.5742  348.8431 N   0  0  0  0  0  0  0  0  0  0  0  0
  -53.6574   61.4864  349.8816 C   0  0  0  0  0  0  0  0  0  0  0  0
  -52.9868   60.7366  350.9725 C   0  0  0  0  0  0  0  0  0  0  0  0
  -52.7803   59.4385  350.5420 C   0  0  0  0  0  0  0  0  0  0  0  0
  -53.3450   59.3012  349.1591 C   0  0  0  0  0  0  0  0  0  0  0  0
  -52.6065   61.4315  352.2011 C   0  0  0  0  0  0  0  0  0  0  0  0
  -52.1111   58.3291  351.1697 C   0  0  0  0  0  0  0  0  0  0  0  0
  -52.2805   57.9300  352.4282 C   0  0  0  0  0  0  0  0  0  0  0  0
  -54.5197   58.9208  346.3687 N   0  0  0  0  0  0  0  0  0  0  0  0
  -53.8195   58.0104  347.0428 C   0  0  0  0  0  0  0  0  0  0  0  0
  -53.5806   56.8063  346.1821 C   0  0  0  0  0  0  0  0  0  0  0  0
  -54.1335   57.1051  344.9481 C   0  0  0  0  0  0  0  0  0  0  0  0
  -54.7628   58.4541  345.0506 C   0  0  0  0  0  0  0  0  0  0  0  0
  -52.8154   55.6209  346.5823 C   0  0  0  0  0  0  0  0  0  0  0  0
  -54.1692   56.2699  343.7331 C   0  0  0  0  0  0  0  0  0  0  0  0
  -55.5947   55.9188  343.3211 C   0  0  0  0  0  0  0  0  0  0  0  0
  -55.8202   61.2311  345.3875 N   0  0  0  0  0  0  0  0  0  0  0  0
  -55.9113   60.4891  344.1865 C   0  0  0  0  0  0  0  0  0  0  0  0
  -56.5334   61.3198  343.1836 C   0  0  0  0  0  0  0  0  0  0  0  0
  -56.7042   62.5917  343.7750 C   0  0  0  0  0  0  0  0  0  0  0  0
  -56.1960   62.5018  345.1243 C   0  0  0  0  0  0  0  0  0  0  0  0
  -56.8972   60.9526  341.8120 C   0  0  0  0  0  0  0  0  0  0  0  0
  -57.1502   63.9457  343.5246 C   0  0  0  0  0  0  0  0  0  0  0  0
  -57.6482   64.4298  342.5210 O   0  0  0  0  0  0  0  0  0  0  0  0
  -56.8264   64.7621  344.8165 C   0  0  2  0  0  0  0  0  0  0  0  0
  -55.8732   65.8724  344.4657 C   0  0  0  0  0  0  0  0  0  0  0  0
  -54.6618   65.8156  344.2875 O   0  0  0  0  0  0  0  0  0  0  0  0
  -56.4945   67.0988  344.3539 O   0  0  0  0  0  0  0  0  0  0  0  0
  -56.4408   67.7169  343.0740 C   0  0  0  0  0  0  0  0  0  0  0  0
  -60.3302   67.1469  348.8798 C   0  0  0  0  0  0  0  0  0  0  0  0
  -61.1782   66.8853  350.0730 C   0  0  0  0  0  0  0  0  0  0  0  0
  -61.7055   67.9076  350.7517 C   0  0  0  0  0  0  0  0  0  0  0  0
  -61.4254   69.2797  350.2934 C   0  0  0  0  0  0  0  0  0  0  0  0
  -62.5708   67.7489  351.9658 C   0  0  0  0  0  0  0  0  0  0  0  0
  -61.8854   67.1282  353.1895 C   0  0  0  0  0  0  0  0  0  0  0  0
  -60.4849   67.6993  353.3831 C   0  0  0  0  0  0  0  0  0  0  0  0
  -60.1295   67.9884  354.8384 C   0  0  2  0  0  0  0  0  0  0  0  0
  -58.7205   68.5053  354.9333 C   0  0  0  0  0  0  0  0  0  0  0  0
  -60.3088   66.7736  355.7507 C   0  0  0  0  0  0  0  0  0  0  0  0
  -59.1126   66.5237  356.6659 C   0  0  0  0  0  0  0  0  0  0  0  0
  -58.5236   65.1235  356.5476 C   0  0  0  0  0  0  0  0  0  0  0  0
  -58.6198   64.3458  357.8584 C   0  0  2  0  0  0  0  0  0  0  0  0
  -57.2567   64.1086  358.5035 C   0  0  0  0  0  0  0  0  0  0  0  0
  -59.2856   63.0044  357.6191 C   0  0  0  0  0  0  0  0  0  0  0  0
  -60.6992   63.1099  357.0845 C   0  0  0  0  0  0  0  0  0  0  0  0
  -60.9329   62.0155  356.0464 C   0  0  0  0  0  0  0  0  0  0  0  0
  -60.7241   62.5300  354.6285 C   0  0  2  0  0  0  0  0  0  0  0  0
  -62.0475   62.9179  354.0132 C   0  0  0  0  0  0  0  0  0  0  0  0
  -60.0826   61.4391  353.8074 C   0  0  0  0  0  0  0  0  0  0  0  0
  -53.6959   63.3628  350.8505 H   0  0  0  0  0  0  0  0  0  0  0  0
  -52.7062   57.3392  348.7756 H   0  0  0  0  0  0  0  0  0  0  0  0
  -55.5324   58.6627  343.0932 H   0  0  0  0  0  0  0  0  0  0  0  0
  -55.7253   66.1643  347.2582 H   0  0  0  0  0  0  0  0  0  0  0  0
  -55.2448   65.3291  350.0001 H   0  0  0  0  0  0  0  0  0  0  0  0
  -53.2181   66.1515  349.7156 H   0  0  0  0  0  0  0  0  0  0  0  0
  -52.9327   65.2621  348.1812 H   0  0  0  0  0  0  0  0  0  0  0  0
  -53.9301   66.7561  348.1812 H   0  0  0  0  0  0  0  0  0  0  0  0
  -57.8696   64.5421  348.3890 H   0  0  0  0  0  0  0  0  0  0  0  0
  -57.2783   65.9152  349.3797 H   0  0  0  0  0  0  0  0  0  0  0  0
  -58.1675   67.4288  347.9521 H   0  0  0  0  0  0  0  0  0  0  0  0
  -57.4261   66.6172  346.5319 H   0  0  0  0  0  0  0  0  0  0  0  0
  -54.3533   60.8011  347.9610 H   0  0  0  0  0  0  0  0  0  0  0  0
  -52.9295   60.8412  353.0713 H   0  0  0  0  0  0  0  0  0  0  0  0
  -51.5140   61.5570  352.2283 H   0  0  0  0  0  0  0  0  0  0  0  0
  -53.0898   62.4193  352.2283 H   0  0  0  0  0  0  0  0  0  0  0  0
  -51.3970   57.7612  350.5553 H   0  0  0  0  0  0  0  0  0  0  0  0
  -51.7177   57.0663  352.8118 H   0  0  0  0  0  0  0  0  0  0  0  0
  -52.9833   58.4641  353.0846 H   0  0  0  0  0  0  0  0  0  0  0  0
  -52.7775   55.5623  347.6801 H   0  0  0  0  0  0  0  0  0  0  0  0
  -53.3019   54.7185  346.1835 H   0  0  0  0  0  0  0  0  0  0  0  0
  -51.7927   55.6927  346.1835 H   0  0  0  0  0  0  0  0  0  0  0  0
  -53.6871   56.8190  342.9108 H   0  0  0  0  0  0  0  0  0  0  0  0
  -53.6383   55.3315  343.9511 H   0  0  0  0  0  0  0  0  0  0  0  0
  -56.2096   55.7674  344.2205 H   0  0  0  0  0  0  0  0  0  0  0  0
  -56.0162   56.7400  342.7227 H   0  0  0  0  0  0  0  0  0  0  0  0
  -55.5866   54.9958  342.7227 H   0  0  0  0  0  0  0  0  0  0  0  0
  -55.5199   60.8662  346.3027 H   0  0  0  0  0  0  0  0  0  0  0  0
  -57.6712   60.1713  341.8346 H   0  0  0  0  0  0  0  0  0  0  0  0
  -57.2847   61.8376  341.2861 H   0  0  0  0  0  0  0  0  0  0  0  0
  -56.0086   60.5734  341.2861 H   0  0  0  0  0  0  0  0  0  0  0  0
  -57.7078   65.2447  345.2640 H   0  0  0  0  0  0  0  0  0  0  0  0
  -56.3464   68.8060  343.1965 H   0  0  0  0  0  0  0  0  0  0  0  0
  -55.5725   67.3338  342.5179 H   0  0  0  0  0  0  0  0  0  0  0  0
  -57.3621   67.4891  342.5179 H   0  0  0  0  0  0  0  0  0  0  0  0
  -59.3184   67.4358  349.2004 H   0  0  0  0  0  0  0  0  0  0  0  0
  -60.7621   67.9644  348.2838 H   0  0  0  0  0  0  0  0  0  0  0  0
  -61.3709   65.8516  350.3962 H   0  0  0  0  0  0  0  0  0  0  0  0
  -61.2912   69.9372  351.1651 H   0  0  0  0  0  0  0  0  0  0  0  0
  -60.5080   69.2835  349.6866 H   0  0  0  0  0  0  0  0  0  0  0  0
  -62.2679   69.6428  349.6866 H   0  0  0  0  0  0  0  0  0  0  0  0
  -62.9384   68.7452  352.2524 H   0  0  0  0  0  0  0  0  0  0  0  0
  -63.3680   67.0475  351.6784 H   0  0  0  0  0  0  0  0  0  0  0  0
  -62.4873   67.3416  354.0852 H   0  0  0  0  0  0  0  0  0  0  0  0
  -61.8011   66.0431  353.0298 H   0  0  0  0  0  0  0  0  0  0  0  0
  -59.7580   66.9752  352.9866 H   0  0  0  0  0  0  0  0  0  0  0  0
  -60.4567   68.6616  352.8509 H   0  0  0  0  0  0  0  0  0  0  0  0
  -60.8336   68.7562  355.1916 H   0  0  0  0  0  0  0  0  0  0  0  0
  -58.4384   68.6087  355.9914 H   0  0  0  0  0  0  0  0  0  0  0  0
  -58.0369   67.7993  354.4389 H   0  0  0  0  0  0  0  0  0  0  0  0
  -58.6555   69.4858  354.4389 H   0  0  0  0  0  0  0  0  0  0  0  0
  -61.1991   66.9350  356.3761 H   0  0  0  0  0  0  0  0  0  0  0  0
  -60.4123   65.8914  355.1018 H   0  0  0  0  0  0  0  0  0  0  0  0
  -58.3271   67.2517  356.4150 H   0  0  0  0  0  0  0  0  0  0  0  0
  -59.4747   66.6305  357.6991 H   0  0  0  0  0  0  0  0  0  0  0  0
  -59.0710   64.5733  355.7681 H   0  0  0  0  0  0  0  0  0  0  0  0
  -57.4585   65.2251  356.2920 H   0  0  0  0  0  0  0  0  0  0  0  0
  -59.2187   64.9608  358.5462 H   0  0  0  0  0  0  0  0  0  0  0  0
  -57.3610   64.1268  359.5984 H   0  0  0  0  0  0  0  0  0  0  0  0
  -56.8673   63.1292  358.1885 H   0  0  0  0  0  0  0  0  0  0  0  0
  -56.5594   64.8989  358.1885 H   0  0  0  0  0  0  0  0  0  0  0  0
  -58.6810   62.4419  356.8923 H   0  0  0  0  0  0  0  0  0  0  0  0
  -59.3488   62.4996  358.5945 H   0  0  0  0  0  0  0  0  0  0  0  0
  -61.4141   62.9894  357.9118 H   0  0  0  0  0  0  0  0  0  0  0  0
  -60.8422   64.0954  356.6173 H   0  0  0  0  0  0  0  0  0  0  0  0
  -60.2296   61.1907  356.2334 H   0  0  0  0  0  0  0  0  0  0  0  0
  -61.9746   61.6739  356.1371 H   0  0  0  0  0  0  0  0  0  0  0  0
  -60.0748   63.4176  354.6511 H   0  0  0  0  0  0  0  0  0  0  0  0
  -62.7743   63.1309  354.8109 H   0  0  0  0  0  0  0  0  0  0  0  0
  -61.9135   63.8145  353.3903 H   0  0  0  0  0  0  0  0  0  0  0  0
  -62.4187   62.0908  353.3903 H   0  0  0  0  0  0  0  0  0  0  0  0
  -59.6406   60.6874  354.4779 H   0  0  0  0  0  0  0  0  0  0  0  0
  -60.8440   60.9620  353.1728 H   0  0  0  0  0  0  0  0  0  0  0  0
  -59.2956   61.8725  353.1728 H   0  0  0  0  0  0  0  0  0  0  0  0
  1  6  1  0
  1 36  2  0
  1 40  1  0
  2  9  2  0
  2 17  1  0
  3 20  1  0
  3 25  2  0
  4 28  1  0
  4 33  2  0
  5  6  2  0
  5  9  1  0
  6  7  1  0
  7  8  1  0
  7 11  1  0
  8  9  1  0
  8 10  1  0
 11 12  1  0
 12 13  1  0
 13 14  2  0
 13 15  1  0
 15 45  1  0
 16 17  1  0
 16 20  1  0
 17 18  2  0
 18 19  1  0
 18 21  1  0
 19 20  2  0
 19 22  1  0
 22 23  2  0
 24 25  1  0
 24 28  2  0
 25 26  1  0
 26 27  2  0
 26 29  1  0
 27 28  1  0
 27 30  1  0
 30 31  1  0
 32 33  1  0
 32 36  1  0
 33 34  1  0
 34 35  2  0
 34 37  1  0
 35 36  1  0
 35 38  1  0
 38 39  2  0
 38 40  1  0
 40 41  1  0
 41 42  2  0
 41 43  1  0
 43 44  1  0
 45 46  1  0
 46 47  2  3
 47 48  1  0
 47 49  1  0
 49 50  1  0
 50 51  1  0
 51 52  1  0
 52 53  1  0
 52 54  1  0
 54 55  1  0
 55 56  1  0
 56 57  1  0
 57 58  1  0
 57 59  1  0
 59 60  1  0
 60 61  1  0
 61 62  1  0
 62 63  1  0
 62 64  1  0
  2 65  1  0
  3 66  1  0
  4 67  1  0
  7 68  1  6
  8 69  1  1
 10 70  1  0
 10 71  1  0
 10 72  1  0
 11 73  1  0
 11 74  1  0
 12 75  1  0
 12 76  1  0
 16 77  1  0
 21 78  1  0
 21 79  1  0
 21 80  1  0
 22 81  1  0
 23 82  1  0
 23 83  1  0
 29 84  1  0
 29 85  1  0
 29 86  1  0
 30 87  1  0
 30 88  1  0
 31 89  1  0
 31 90  1  0
 31 91  1  0
 32 92  1  0
 37 93  1  0
 37 94  1  0
 37 95  1  0
 40 96  1  1
 44 97  1  0
 44 98  1  0
 44 99  1  0
 45100  1  0
 45101  1  0
 46102  1  0
 48103  1  0
 48104  1  0
 48105  1  0
 49106  1  0
 49107  1  0
 50108  1  0
 50109  1  0
 51110  1  0
 51111  1  0
 52112  1  1
 53113  1  0
 53114  1  0
 53115  1  0
 54116  1  0
 54117  1  0
 55118  1  0
 55119  1  0
 56120  1  0
 56121  1  0
 57122  1  1
 58123  1  0
 58124  1  0
 58125  1  0
 59126  1  0
 59127  1  0
 60128  1  0
 60129  1  0
 61130  1  0
 61131  1  0
 62132  1  1
 63133  1  0
 63134  1  0
 63135  1  0
 64136  1  0
 64137  1  0
 64138  1  0
M  END
>  <filename_input>  (3) 
8F4J_PHO_docked.sdf

>  <pdb_id>  (3) 
8F4J_PHO

>  <pose_rank>  (3) 
2

>  <num_atoms_heavy>  (3) 
64

>  <num_torsions>  (3) 
22

>  <pose>  (3) 
[-56.2481735821299, 63.76461458708609, 345.8035972734237, -2.8380580886692788, -4.660794277861194, 2.8273642825213026, 0.4208857042753566, 0.1442817217776214, 3.3708113200525576, 7.501188086732496, -4.750158799988213, -0.9623103640911621, 4.127323384970579, 3.6357879984659074, 1.9142646182815786, -0.41718123809865576, -3.1671599454431, -2.651830392170819, -1.0422149663738194, 4.126396891434966, 3.3878440488527044, 5.2688458413251595, 0.9750957570097959, -0.6762411288602843, 0.25296474861123214, -0.7468012158190527, -4.695652806355975, 1.4808948328846088]

>  <energy>  (3) 
-760.3305029277366

>  <inter_energy>  (3) 
-790.7344772719854

>  <intra_energy>  (3) 
30.87550554358568

>  <rmsd>  (3) 
2.8887

>  <sdf_rank>  (3) 
0

$$$$

     RDKit          3D

138143  0  0  0  0  0  0  0  0999 V2000
  -53.8530   61.1203  348.7086 C   0  0  0  0  0  0  0  0  0  0  0  0
  -56.5278   63.5218  345.5016 C   0  0  0  0  0  0  0  0  0  0  0  0
  -56.4015   59.5514  342.5813 C   0  0  0  0  0  0  0  0  0  0  0  0
  -53.8478   56.9995  345.8904 C   0  0  0  0  0  0  0  0  0  0  0  0
  -55.2466   62.0501  346.9608 N   0  0  0  0  0  0  0  0  0  0  0  0
  -54.5027   62.1663  348.1676 C   0  0  0  0  0  0  0  0  0  0  0  0
  -54.6463   63.5501  348.7606 C   0  0  2  0  0  0  0  0  0  0  0  0
  -55.7811   64.1662  347.8890 C   0  0  1  0  0  0  0  0  0  0  0  0
  -55.8435   63.1949  346.7107 C   0  0  0  0  0  0  0  0  0  0  0  0
  -57.0654   64.1934  348.6672 C   0  0  0  0  0  0  0  0  0  0  0  0
  -53.3711   64.3558  348.7069 C   0  0  0  0  0  0  0  0  0  0  0  0
  -53.7085   65.7967  348.3723 C   0  0  0  0  0  0  0  0  0  0  0  0
  -54.1094   66.5154  349.6191 C   0  0  0  0  0  0  0  0  0  0  0  0
  -53.9099   66.1753  350.7875 O   0  0  0  0  0  0  0  0  0  0  0  0
  -54.7914   67.6704  349.3736 O   0  0  0  0  0  0  0  0  0  0  0  0
  -56.1792   61.3755  344.2831 N   0  0  0  0  0  0  0  0  0  0  0  0
  -56.6497   62.6840  344.4348 C   0  0  0  0  0  0  0  0  0  0  0  0
  -57.3575   63.0286  343.1769 C   0  0  0  0  0  0  0  0  0  0  0  0
  -57.3325   61.9210  342.3489 C   0  0  0  0  0  0  0  0  0  0  0  0
  -56.5733   60.8278  343.0408 C   0  0  0  0  0  0  0  0  0  0  0  0
  -57.9877   64.3402  343.0367 C   0  0  0  0  0  0  0  0  0  0  0  0
  -57.9293   61.6907  341.0591 C   0  0  0  0  0  0  0  0  0  0  0  0
  -57.3169   61.8211  339.8846 C   0  0  0  0  0  0  0  0  0  0  0  0
  -54.9933   58.5711  344.3530 N   0  0  0  0  0  0  0  0  0  0  0  0
  -55.6529   58.4831  343.1994 C   0  0  0  0  0  0  0  0  0  0  0  0
  -55.6139   57.0727  342.6925 C   0  0  0  0  0  0  0  0  0  0  0  0
  -54.9435   56.3400  343.6576 C   0  0  0  0  0  0  0  0  0  0  0  0
  -54.5157   57.2881  344.7273 C   0  0  0  0  0  0  0  0  0  0  0  0
  -56.2645   56.5979  341.4668 C   0  0  0  0  0  0  0  0  0  0  0  0
  -54.6353   54.8978  343.6639 C   0  0  0  0  0  0  0  0  0  0  0  0
  -53.1351   54.6330  343.7315 C   0  0  0  0  0  0  0  0  0  0  0  0
  -53.8857   59.2979  346.8503 N   0  0  0  0  0  0  0  0  0  0  0  0
  -53.5372   57.9290  346.9271 C   0  0  0  0  0  0  0  0  0  0  0  0
  -52.8995   57.6917  348.1998 C   0  0  0  0  0  0  0  0  0  0  0  0
  -52.9779   58.9087  348.9137 C   0  0  0  0  0  0  0  0  0  0  0  0
  -53.6473   59.8590  348.0560 C   0  0  0  0  0  0  0  0  0  0  0  0
  -52.3092   56.4429  348.6901 C   0  0  0  0  0  0  0  0  0  0  0  0
  -52.6832   59.5393  350.1826 C   0  0  0  0  0  0  0  0  0  0  0  0
  -52.1220   59.0862  351.1671 O   0  0  0  0  0  0  0  0  0  0  0  0
  -53.2823   60.9801  350.1080 C   0  0  2  0  0  0  0  0  0  0  0  0
  -54.3165   61.1349  351.1902 C   0  0  0  0  0  0  0  0  0  0  0  0
  -54.5375   62.1044  351.9068 O   0  0  0  0  0  0  0  0  0  0  0  0
  -55.0828   60.0018  351.3673 O   0  0  0  0  0  0  0  0  0  0  0  0
  -55.2211   59.5386  352.7049 C   0  0  0  0  0  0  0  0  0  0  0  0
  -55.7892   67.6445  348.3235 C   0  0  0  0  0  0  0  0  0  0  0  0
  -57.1322   67.8078  348.9409 C   0  0  0  0  0  0  0  0  0  0  0  0
  -58.2018   68.0030  348.1652 C   0  0  0  0  0  0  0  0  0  0  0  0
  -58.0158   68.0538  346.7044 C   0  0  0  0  0  0  0  0  0  0  0  0
  -59.5952   68.1796  348.6899 C   0  0  0  0  0  0  0  0  0  0  0  0
  -59.8763   67.5307  350.0509 C   0  0  0  0  0  0  0  0  0  0  0  0
  -60.2021   68.5835  351.1046 C   0  0  0  0  0  0  0  0  0  0  0  0
  -60.6365   68.0029  352.4469 C   0  0  2  0  0  0  0  0  0  0  0  0
  -59.6482   68.3783  353.5164 C   0  0  0  0  0  0  0  0  0  0  0  0
  -60.8232   66.4850  352.4099 C   0  0  0  0  0  0  0  0  0  0  0  0
  -60.5538   65.8103  353.7526 C   0  0  0  0  0  0  0  0  0  0  0  0
  -60.8827   64.3227  353.7758 C   0  0  0  0  0  0  0  0  0  0  0  0
  -60.8864   63.7559  355.1939 C   0  0  2  0  0  0  0  0  0  0  0  0
  -61.9791   64.3654  356.0686 C   0  0  0  0  0  0  0  0  0  0  0  0
  -59.5425   63.9980  355.8537 C   0  0  0  0  0  0  0  0  0  0  0  0
  -59.2800   63.1080  357.0513 C   0  0  0  0  0  0  0  0  0  0  0  0
  -58.8598   63.9674  358.2408 C   0  0  0  0  0  0  0  0  0  0  0  0
  -57.3989   64.3863  358.1452 C   0  0  2  0  0  0  0  0  0  0  0  0
  -56.5668   63.6100  359.1379 C   0  0  0  0  0  0  0  0  0  0  0  0
  -57.2983   65.8619  358.4422 C   0  0  0  0  0  0  0  0  0  0  0  0
  -56.9881   64.5180  345.4263 H   0  0  0  0  0  0  0  0  0  0  0  0
  -56.8923   59.3100  341.6270 H   0  0  0  0  0  0  0  0  0  0  0  0
  -53.5230   55.9588  346.0367 H   0  0  0  0  0  0  0  0  0  0  0  0
  -54.8766   63.5345  349.8361 H   0  0  0  0  0  0  0  0  0  0  0  0
  -55.6092   65.2061  347.5743 H   0  0  0  0  0  0  0  0  0  0  0  0
  -56.8417   64.1887  349.7442 H   0  0  0  0  0  0  0  0  0  0  0  0
  -57.6285   65.1037  348.4137 H   0  0  0  0  0  0  0  0  0  0  0  0
  -57.6666   63.3078  348.4137 H   0  0  0  0  0  0  0  0  0  0  0  0
  -52.8666   64.3127  349.6834 H   0  0  0  0  0  0  0  0  0  0  0  0
  -52.7037   63.9427  347.9362 H   0  0  0  0  0  0  0  0  0  0  0  0
  -52.8273   66.2874  347.9332 H   0  0  0  0  0  0  0  0  0  0  0  0
  -54.5387   65.8215  347.6511 H   0  0  0  0  0  0  0  0  0  0  0  0
  -55.6175   60.8749  344.9865 H   0  0  0  0  0  0  0  0  0  0  0  0
  -58.1888   64.7588  344.0339 H   0  0  0  0  0  0  0  0  0  0  0  0
  -57.3147   65.0134  342.4854 H   0  0  0  0  0  0  0  0  0  0  0  0
  -58.9338   64.2355  342.4854 H   0  0  0  0  0  0  0  0  0  0  0  0
  -58.9843   61.3797  341.0430 H   0  0  0  0  0  0  0  0  0  0  0  0
  -57.8658   61.6200  338.9528 H   0  0  0  0  0  0  0  0  0  0  0  0
  -56.2618   62.1298  339.8457 H   0  0  0  0  0  0  0  0  0  0  0  0
  -57.1272   55.9682  341.7299 H   0  0  0  0  0  0  0  0  0  0  0  0
  -56.6066   57.4601  340.8756 H   0  0  0  0  0  0  0  0  0  0  0  0
  -55.5476   56.0092  340.8756 H   0  0  0  0  0  0  0  0  0  0  0  0
  -55.1170   54.4359  344.5383 H   0  0  0  0  0  0  0  0  0  0  0  0
  -55.0139   54.4661  342.7257 H   0  0  0  0  0  0  0  0  0  0  0  0
  -52.8197   54.5773  344.7839 H   0  0  0  0  0  0  0  0  0  0  0  0
  -52.9079   53.6808  343.2298 H   0  0  0  0  0  0  0  0  0  0  0  0
  -52.5956   55.4498  343.2298 H   0  0  0  0  0  0  0  0  0  0  0  0
  -54.2564   59.7822  346.0203 H   0  0  0  0  0  0  0  0  0  0  0  0
  -52.3098   56.4442  349.7901 H   0  0  0  0  0  0  0  0  0  0  0  0
  -52.8994   55.5899  348.3240 H   0  0  0  0  0  0  0  0  0  0  0  0
  -51.2754   56.3576  348.3240 H   0  0  0  0  0  0  0  0  0  0  0  0
  -52.5402   61.7741  350.2774 H   0  0  0  0  0  0  0  0  0  0  0  0
  -54.9776   60.3537  353.4023 H   0  0  0  0  0  0  0  0  0  0  0  0
  -56.2569   59.2090  352.8735 H   0  0  0  0  0  0  0  0  0  0  0  0
  -54.5358   58.6948  352.8735 H   0  0  0  0  0  0  0  0  0  0  0  0
  -55.6041   68.4663  347.6161 H   0  0  0  0  0  0  0  0  0  0  0  0
  -55.7388   66.6891  347.7808 H   0  0  0  0  0  0  0  0  0  0  0  0
  -57.2444   67.7679  350.0344 H   0  0  0  0  0  0  0  0  0  0  0  0
  -56.9777   68.3372  346.4766 H   0  0  0  0  0  0  0  0  0  0  0  0
  -58.2289   67.0646  346.2731 H   0  0  0  0  0  0  0  0  0  0  0  0
  -58.7020   68.7974  346.2731 H   0  0  0  0  0  0  0  0  0  0  0  0
  -59.7879   69.2586  348.7828 H   0  0  0  0  0  0  0  0  0  0  0  0
  -60.2548   67.6713  347.9712 H   0  0  0  0  0  0  0  0  0  0  0  0
  -60.7307   66.8449  349.9523 H   0  0  0  0  0  0  0  0  0  0  0  0
  -58.9765   66.9842  350.3698 H   0  0  0  0  0  0  0  0  0  0  0  0
  -59.3051   69.1990  351.2677 H   0  0  0  0  0  0  0  0  0  0  0  0
  -61.0514   69.1673  350.7199 H   0  0  0  0  0  0  0  0  0  0  0  0
  -61.6203   68.4373  352.6783 H   0  0  0  0  0  0  0  0  0  0  0  0
  -60.0968   68.2079  354.5063 H   0  0  0  0  0  0  0  0  0  0  0  0
  -58.7436   67.7611  353.4127 H   0  0  0  0  0  0  0  0  0  0  0  0
  -59.3814   69.4404  353.4127 H   0  0  0  0  0  0  0  0  0  0  0  0
  -61.8595   66.2678  352.1117 H   0  0  0  0  0  0  0  0  0  0  0  0
  -60.0926   66.0844  351.6917 H   0  0  0  0  0  0  0  0  0  0  0  0
  -59.4874   65.9326  353.9934 H   0  0  0  0  0  0  0  0  0  0  0  0
  -61.2125   66.2934  354.4893 H   0  0  0  0  0  0  0  0  0  0  0  0
  -61.8777   64.1727  353.3315 H   0  0  0  0  0  0  0  0  0  0  0  0
  -60.1056   63.7955  353.2029 H   0  0  0  0  0  0  0  0  0  0  0  0
  -61.0866   62.6782  355.1018 H   0  0  0  0  0  0  0  0  0  0  0  0
  -61.7226   64.2224  357.1286 H   0  0  0  0  0  0  0  0  0  0  0  0
  -62.0634   65.4409  355.8537 H   0  0  0  0  0  0  0  0  0  0  0  0
  -62.9385   63.8722  355.8537 H   0  0  0  0  0  0  0  0  0  0  0  0
  -58.7532   63.8188  355.1088 H   0  0  0  0  0  0  0  0  0  0  0  0
  -59.5479   65.0350  356.2204 H   0  0  0  0  0  0  0  0  0  0  0  0
  -60.1960   62.5541  357.3045 H   0  0  0  0  0  0  0  0  0  0  0  0
  -58.4764   62.3965  356.8106 H   0  0  0  0  0  0  0  0  0  0  0  0
  -59.4883   64.8697  358.2682 H   0  0  0  0  0  0  0  0  0  0  0  0
  -58.9861   63.3708  359.1563 H   0  0  0  0  0  0  0  0  0  0  0  0
  -57.0219   64.1777  357.1331 H   0  0  0  0  0  0  0  0  0  0  0  0
  -56.8633   63.8866  360.1605 H   0  0  0  0  0  0  0  0  0  0  0  0
  -56.7282   62.5323  358.9882 H   0  0  0  0  0  0  0  0  0  0  0  0
  -55.5029   63.8458  358.9882 H   0  0  0  0  0  0  0  0  0  0  0  0
  -57.2877   66.0169  359.5311 H   0  0  0  0  0  0  0  0  0  0  0  0
  -56.3708   66.2612  358.0059 H   0  0  0  0  0  0  0  0  0  0  0  0
  -58.1629   66.3835  358.0059 H   0  0  0  0  0  0  0  0  0  0  0  0
  1  6  1  0
  1 36  2  0
  1 40  1  0
  2  9  2  0
  2 17  1  0
  3 20  1  0
  3 25  2  0
  4 28  1  0
  4 33  2  0
  5  6  2  0
  5  9  1  0
  6  7  1  0
  7  8  1  0
  7 11  1  0
  8  9  1  0
  8 10  1  0
 11 12  1  0
 12 13  1  0
 13 14  2  0
 13 15  1  0
 15 45  1  0
 16 17  1  0
 16 20  1  0
 17 18  2  0
 18 19  1  0
 18 21  1  0
 19 20  2  0
 19 22  1  0
 22 23  2  0
 24 25  1  0
 24 28  2  0
 25 26  1  0
 26 27  2  0
 26 29  1  0
 27 28  1  0
 27 30  1  0
 30 31  1  0
 32 33  1  0
 32 36  1  0
 33 34  1  0
 34 35  2  0
 34 37  1  0
 35 36  1  0
 35 38  1  0
 38 39  2  0
 38 40  1  0
 40 41  1  0
 41 42  2  0
 41 43  1  0
 43 44  1  0
 45 46  1  0
 46 47  2  3
 47 48  1  0
 47 49  1  0
 49 50  1  0
 50 51  1  0
 51 52  1  0
 52 53  1  0
 52 54  1  0
 54 55  1  0
 55 56  1  0
 56 57  1  0
 57 58  1  0
 57 59  1  0
 59 60  1  0
 60 61  1  0
 61 62  1  0
 62 63  1  0
 62 64  1  0
  2 65  1  0
  3 66  1  0
  4 67  1  0
  7 68  1  1
  8 69  1  6
 10 70  1  0
 10 71  1  0
 10 72  1  0
 11 73  1  0
 11 74  1  0
 12 75  1  0
 12 76  1  0
 16 77  1  0
 21 78  1  0
 21 79  1  0
 21 80  1  0
 22 81  1  0
 23 82  1  0
 23 83  1  0
 29 84  1  0
 29 85  1  0
 29 86  1  0
 30 87  1  0
 30 88  1  0
 31 89  1  0
 31 90  1  0
 31 91  1  0
 32 92  1  0
 37 93  1  0
 37 94  1  0
 37 95  1  0
 40 96  1  1
 44 97  1  0
 44 98  1  0
 44 99  1  0
 45100  1  0
 45101  1  0
 46102  1  0
 48103  1  0
 48104  1  0
 48105  1  0
 49106  1  0
 49107  1  0
 50108  1  0
 50109  1  0
 51110  1  0
 51111  1  0
 52112  1  1
 53113  1  0
 53114  1  0
 53115  1  0
 54116  1  0
 54117  1  0
 55118  1  0
 55119  1  0
 56120  1  0
 56121  1  0
 57122  1  6
 58123  1  0
 58124  1  0
 58125  1  0
 59126  1  0
 59127  1  0
 60128  1  0
 60129  1  0
 61130  1  0
 61131  1  0
 62132  1  6
 63133  1  0
 63134  1  0
 63135  1  0
 64136  1  0
 64137  1  0
 64138  1  0
M  END
>  <filename_input>  (4) 
8F4J_PHO_docked.sdf

>  <pdb_id>  (4) 
8F4J_PHO

>  <pose_rank>  (4) 
3

>  <num_atoms_heavy>  (4) 
64

>  <num_torsions>  (4) 
22

>  <pose>  (4) 
[-53.85295088394315, 61.12027390373013, 348.7085704386216, -0.4642988558237185, 2.9018589956479834, 1.4044288832110339, 1.2895259488202355, 0.19881068544730232, 0.9134303136579175, -0.7345260602241177, -6.855350257122227, 4.497365612962248, 18.8910408411829, 16.16721426380917, 6.844142163227809, -0.9115133073606402, -4.753844847513756, 4.913578415809613, -6.714349913467418, 3.0505250107277964, -8.857126521315735, -2.0918072435826995, 6.3868022870328645, 2.385996177289037, -1.496221542549338, -5.459598455157388, -4.386938523784281, -4.975030646928401]

>  <energy>  (4) 
-698.7624423479978

>  <inter_energy>  (4) 
-724.6044202539367

>  <intra_energy>  (4) 
25.891578561718468

>  <rmsd>  (4) 
6.31786

>  <sdf_rank>  (4) 
0

$$$$

     RDKit          3D

138143  0  0  0  0  0  0  0  0999 V2000
  -56.6800   63.8852  344.8142 C   0  0  0  0  0  0  0  0  0  0  0  0
  -54.9798   63.4722  349.3025 C   0  0  0  0  0  0  0  0  0  0  0  0
  -53.6770   58.8308  348.2688 C   0  0  0  0  0  0  0  0  0  0  0  0
  -55.2122   59.2608  343.6383 C   0  0  0  0  0  0  0  0  0  0  0  0
  -55.6808   63.4192  346.9697 N   0  0  0  0  0  0  0  0  0  0  0  0
  -56.4315   64.2437  346.0864 C   0  0  0  0  0  0  0  0  0  0  0  0
  -56.7877   65.5579  346.7446 C   0  0  2  0  0  0  0  0  0  0  0  0
  -55.9307   65.5184  348.0450 C   0  0  1  0  0  0  0  0  0  0  0  0
  -55.5196   64.0480  348.1134 C   0  0  0  0  0  0  0  0  0  0  0  0
  -54.7458   66.4303  347.9040 C   0  0  0  0  0  0  0  0  0  0  0  0
  -58.2635   65.7016  347.0264 C   0  0  0  0  0  0  0  0  0  0  0  0
  -58.4523   66.5904  348.2415 C   0  0  0  0  0  0  0  0  0  0  0  0
  -59.6797   66.1674  348.9806 C   0  0  0  0  0  0  0  0  0  0  0  0
  -59.9552   65.0459  349.4132 O   0  0  0  0  0  0  0  0  0  0  0  0
  -60.5758   67.1809  349.1514 O   0  0  0  0  0  0  0  0  0  0  0  0
  -54.5420   61.1750  348.4398 N   0  0  0  0  0  0  0  0  0  0  0  0
  -54.5608   62.1809  349.4116 C   0  0  0  0  0  0  0  0  0  0  0  0
  -54.0047   61.5835  350.6510 C   0  0  0  0  0  0  0  0  0  0  0  0
  -53.6316   60.2809  350.3738 C   0  0  0  0  0  0  0  0  0  0  0  0
  -53.9677   59.9849  348.9422 C   0  0  0  0  0  0  0  0  0  0  0  0
  -53.8718   62.4040  351.8536 C   0  0  0  0  0  0  0  0  0  0  0  0
  -52.9779   59.2905  351.1890 C   0  0  0  0  0  0  0  0  0  0  0  0
  -52.9929   59.2453  352.5192 C   0  0  0  0  0  0  0  0  0  0  0  0
  -54.6724   59.2817  346.0578 N   0  0  0  0  0  0  0  0  0  0  0  0
  -54.0111   58.4954  346.9052 C   0  0  0  0  0  0  0  0  0  0  0  0
  -53.5487   57.2557  346.2002 C   0  0  0  0  0  0  0  0  0  0  0  0
  -53.9308   57.4052  344.8776 C   0  0  0  0  0  0  0  0  0  0  0  0
  -54.6749   58.6936  344.7661 C   0  0  0  0  0  0  0  0  0  0  0  0
  -52.7598   56.1812  346.8119 C   0  0  0  0  0  0  0  0  0  0  0  0
  -53.7149   56.4787  343.7507 C   0  0  0  0  0  0  0  0  0  0  0  0
  -54.8219   55.4351  343.6470 C   0  0  0  0  0  0  0  0  0  0  0  0
  -55.9914   61.3779  344.6948 N   0  0  0  0  0  0  0  0  0  0  0  0
  -55.8397   60.5398  343.5652 C   0  0  0  0  0  0  0  0  0  0  0  0
  -56.3679   61.2288  342.4123 C   0  0  0  0  0  0  0  0  0  0  0  0
  -56.7280   62.5213  342.8555 C   0  0  0  0  0  0  0  0  0  0  0  0
  -56.4242   62.5839  344.2664 C   0  0  0  0  0  0  0  0  0  0  0  0
  -56.4892   60.7242  341.0416 C   0  0  0  0  0  0  0  0  0  0  0  0
  -57.2386   63.8044  342.4221 C   0  0  0  0  0  0  0  0  0  0  0  0
  -57.6165   64.1608  341.3177 O   0  0  0  0  0  0  0  0  0  0  0  0
  -57.1807   64.7450  343.6680 C   0  0  2  0  0  0  0  0  0  0  0  0
  -56.2780   65.9087  343.3591 C   0  0  0  0  0  0  0  0  0  0  0  0
  -55.0533   65.9549  343.3757 O   0  0  0  0  0  0  0  0  0  0  0  0
  -56.9718   67.0550  343.0315 O   0  0  0  0  0  0  0  0  0  0  0  0
  -56.2699   68.2819  343.1890 C   0  0  0  0  0  0  0  0  0  0  0  0
  -60.4464   67.9903  350.3459 C   0  0  0  0  0  0  0  0  0  0  0  0
  -60.0078   67.1162  351.4662 C   0  0  0  0  0  0  0  0  0  0  0  0
  -60.8210   66.9073  352.5049 C   0  0  0  0  0  0  0  0  0  0  0  0
  -62.1424   67.5592  352.5103 C   0  0  0  0  0  0  0  0  0  0  0  0
  -60.4717   66.0460  353.6813 C   0  0  0  0  0  0  0  0  0  0  0  0
  -61.6618   65.4145  354.4147 C   0  0  0  0  0  0  0  0  0  0  0  0
  -61.9822   64.0332  353.8541 C   0  0  0  0  0  0  0  0  0  0  0  0
  -60.7922   63.0784  353.8417 C   0  0  2  0  0  0  0  0  0  0  0  0
  -60.2030   63.0050  352.4601 C   0  0  0  0  0  0  0  0  0  0  0  0
  -61.1454   61.6758  354.3402 C   0  0  0  0  0  0  0  0  0  0  0  0
  -60.3369   60.5725  353.6623 C   0  0  0  0  0  0  0  0  0  0  0  0
  -61.1031   59.8156  352.5845 C   0  0  0  0  0  0  0  0  0  0  0  0
  -60.5190   58.4277  352.3300 C   0  0  2  0  0  0  0  0  0  0  0  0
  -59.1388   58.2459  352.9565 C   0  0  0  0  0  0  0  0  0  0  0  0
  -60.4143   58.1735  350.8385 C   0  0  0  0  0  0  0  0  0  0  0  0
  -61.2876   57.0363  350.3491 C   0  0  0  0  0  0  0  0  0  0  0  0
  -60.9613   55.7699  351.1363 C   0  0  0  0  0  0  0  0  0  0  0  0
  -59.9093   54.9238  350.4320 C   0  0  2  0  0  0  0  0  0  0  0  0
  -60.4623   54.3718  349.1397 C   0  0  0  0  0  0  0  0  0  0  0  0
  -59.5138   53.7873  351.3417 C   0  0  0  0  0  0  0  0  0  0  0  0
  -54.8965   64.1150  350.1913 H   0  0  0  0  0  0  0  0  0  0  0  0
  -53.1224   58.0670  348.8336 H   0  0  0  0  0  0  0  0  0  0  0  0
  -55.1539   58.6774  342.7076 H   0  0  0  0  0  0  0  0  0  0  0  0
  -56.5782   66.4286  346.1059 H   0  0  0  0  0  0  0  0  0  0  0  0
  -56.4522   65.8567  348.9526 H   0  0  0  0  0  0  0  0  0  0  0  0
  -54.3793   66.7123  348.9020 H   0  0  0  0  0  0  0  0  0  0  0  0
  -53.9473   65.9114  347.3533 H   0  0  0  0  0  0  0  0  0  0  0  0
  -55.0428   67.3350  347.3533 H   0  0  0  0  0  0  0  0  0  0  0  0
  -58.7621   66.1553  346.1571 H   0  0  0  0  0  0  0  0  0  0  0  0
  -58.7023   64.7116  347.2194 H   0  0  0  0  0  0  0  0  0  0  0  0
  -57.5771   66.5000  348.9017 H   0  0  0  0  0  0  0  0  0  0  0  0
  -58.5605   67.6362  347.9183 H   0  0  0  0  0  0  0  0  0  0  0  0
  -54.9008   61.2870  347.4808 H   0  0  0  0  0  0  0  0  0  0  0  0
  -53.9749   61.7675  352.7449 H   0  0  0  0  0  0  0  0  0  0  0  0
  -52.8837   62.8873  351.8605 H   0  0  0  0  0  0  0  0  0  0  0  0
  -54.6569   63.1744  351.8605 H   0  0  0  0  0  0  0  0  0  0  0  0
  -52.4166   58.5018  350.6667 H   0  0  0  0  0  0  0  0  0  0  0  0
  -52.4585   58.4426  353.0483 H   0  0  0  0  0  0  0  0  0  0  0  0
  -53.5398   60.0107  353.0894 H   0  0  0  0  0  0  0  0  0  0  0  0
  -52.8185   56.2612  347.9074 H   0  0  0  0  0  0  0  0  0  0  0  0
  -53.1585   55.2067  346.4935 H   0  0  0  0  0  0  0  0  0  0  0  0
  -51.7106   56.2698  346.4935 H   0  0  0  0  0  0  0  0  0  0  0  0
  -53.6845   57.0578  342.8160 H   0  0  0  0  0  0  0  0  0  0  0  0
  -52.7657   55.9502  343.9233 H   0  0  0  0  0  0  0  0  0  0  0  0
  -55.1393   55.1358  344.6568 H   0  0  0  0  0  0  0  0  0  0  0  0
  -55.6785   55.8618  343.1048 H   0  0  0  0  0  0  0  0  0  0  0  0
  -54.4463   54.5548  343.1048 H   0  0  0  0  0  0  0  0  0  0  0  0
  -55.8046   61.1146  345.6729 H   0  0  0  0  0  0  0  0  0  0  0  0
  -56.7463   59.6549  341.0659 H   0  0  0  0  0  0  0  0  0  0  0  0
  -57.2794   61.2794  340.5151 H   0  0  0  0  0  0  0  0  0  0  0  0
  -55.5329   60.8594  340.5151 H   0  0  0  0  0  0  0  0  0  0  0  0
  -58.1556   65.1768  343.9385 H   0  0  0  0  0  0  0  0  0  0  0  0
  -56.1459   68.4985  344.2603 H   0  0  0  0  0  0  0  0  0  0  0  0
  -55.2808   68.2021  342.7143 H   0  0  0  0  0  0  0  0  0  0  0  0
  -56.8400   69.0941  342.7143 H   0  0  0  0  0  0  0  0  0  0  0  0
  -59.7002   68.7809  350.1787 H   0  0  0  0  0  0  0  0  0  0  0  0
  -61.4120   68.4574  350.5897 H   0  0  0  0  0  0  0  0  0  0  0  0
  -59.0154   66.6424  351.4394 H   0  0  0  0  0  0  0  0  0  0  0  0
  -62.4678   67.7197  353.5488 H   0  0  0  0  0  0  0  0  0  0  0  0
  -62.0755   68.5277  351.9931 H   0  0  0  0  0  0  0  0  0  0  0  0
  -62.8703   66.9168  351.9931 H   0  0  0  0  0  0  0  0  0  0  0  0
  -59.8231   65.2323  353.3248 H   0  0  0  0  0  0  0  0  0  0  0  0
  -59.9875   66.7126  354.4101 H   0  0  0  0  0  0  0  0  0  0  0  0
  -61.4166   65.3206  355.4829 H   0  0  0  0  0  0  0  0  0  0  0  0
  -62.5409   66.0607  354.2750 H   0  0  0  0  0  0  0  0  0  0  0  0
  -62.7780   63.5865  354.4682 H   0  0  0  0  0  0  0  0  0  0  0  0
  -62.2863   64.1770  352.8068 H   0  0  0  0  0  0  0  0  0  0  0  0
  -60.0496   63.4861  354.5434 H   0  0  0  0  0  0  0  0  0  0  0  0
  -59.1138   62.8694  352.5327 H   0  0  0  0  0  0  0  0  0  0  0  0
  -60.6431   62.1547  351.9184 H   0  0  0  0  0  0  0  0  0  0  0  0
  -60.4211   63.9373  351.9184 H   0  0  0  0  0  0  0  0  0  0  0  0
  -60.9563   61.6322  355.4229 H   0  0  0  0  0  0  0  0  0  0  0  0
  -62.2037   61.5005  354.0967 H   0  0  0  0  0  0  0  0  0  0  0  0
  -59.4491   61.0286  353.1998 H   0  0  0  0  0  0  0  0  0  0  0  0
  -60.0795   59.8413  354.4427 H   0  0  0  0  0  0  0  0  0  0  0  0
  -62.1499   59.7065  352.9043 H   0  0  0  0  0  0  0  0  0  0  0  0
  -61.0286   60.3905  351.6496 H   0  0  0  0  0  0  0  0  0  0  0  0
  -61.2035   57.7068  352.8009 H   0  0  0  0  0  0  0  0  0  0  0  0
  -59.2293   58.2578  354.0527 H   0  0  0  0  0  0  0  0  0  0  0  0
  -58.7136   57.2840  352.6341 H   0  0  0  0  0  0  0  0  0  0  0  0
  -58.4791   59.0649  352.6341 H   0  0  0  0  0  0  0  0  0  0  0  0
  -60.7105   59.0909  350.3087 H   0  0  0  0  0  0  0  0  0  0  0  0
  -59.3719   57.8875  350.6347 H   0  0  0  0  0  0  0  0  0  0  0  0
  -62.3460   57.2971  350.4962 H   0  0  0  0  0  0  0  0  0  0  0  0
  -61.0983   56.8624  349.2795 H   0  0  0  0  0  0  0  0  0  0  0  0
  -60.5832   56.0549  352.1292 H   0  0  0  0  0  0  0  0  0  0  0  0
  -61.8811   55.1725  351.2212 H   0  0  0  0  0  0  0  0  0  0  0  0
  -59.0319   55.5456  350.2003 H   0  0  0  0  0  0  0  0  0  0  0  0
  -61.2246   53.6107  349.3626 H   0  0  0  0  0  0  0  0  0  0  0  0
  -60.9170   55.1869  348.5576 H   0  0  0  0  0  0  0  0  0  0  0  0
  -59.6480   53.9156  348.5576 H   0  0  0  0  0  0  0  0  0  0  0  0
  -59.6232   54.1018  352.3901 H   0  0  0  0  0  0  0  0  0  0  0  0
  -60.1631   52.9205  351.1492 H   0  0  0  0  0  0  0  0  0  0  0  0
  -58.4666   53.5109  351.1492 H   0  0  0  0  0  0  0  0  0  0  0  0
  1  6  1  0
  1 36  2  0
  1 40  1  0
  2  9  2  0
  2 17  1  0
  3 20  1  0
  3 25  2  0
  4 28  1  0
  4 33  2  0
  5  6  2  0
  5  9  1  0
  6  7  1  0
  7  8  1  0
  7 11  1  0
  8  9  1  0
  8 10  1  0
 11 12  1  0
 12 13  1  0
 13 14  2  0
 13 15  1  0
 15 45  1  0
 16 17  1  0
 16 20  1  0
 17 18  2  0
 18 19  1  0
 18 21  1  0
 19 20  2  0
 19 22  1  0
 22 23  2  0
 24 25  1  0
 24 28  2  0
 25 26  1  0
 26 27  2  0
 26 29  1  0
 27 28  1  0
 27 30  1  0
 30 31  1  0
 32 33  1  0
 32 36  1  0
 33 34  1  0
 34 35  2  0
 34 37  1  0
 35 36  1  0
 35 38  1  0
 38 39  2  0
 38 40  1  0
 40 41  1  0
 41 42  2  0
 41 43  1  0
 43 44  1  0
 45 46  1  0
 46 47  2  3
 47 48  1  0
 47 49  1  0
 49 50  1  0
 50 51  1  0
 51 52  1  0
 52 53  1  0
 52 54  1  0
 54 55  1  0
 55 56  1  0
 56 57  1  0
 57 58  1  0
 57 59  1  0
 59 60  1  0
 60 61  1  0
 61 62  1  0
 62 63  1  0
 62 64  1  0
  2 65  1  0
  3 66  1  0
  4 67  1  0
  7 68  1  6
  8 69  1  1
 10 70  1  0
 10 71  1  0
 10 72  1  0
 11 73  1  0
 11 74  1  0
 12 75  1  0
 12 76  1  0
 16 77  1  0
 21 78  1  0
 21 79  1  0
 21 80  1  0
 22 81  1  0
 23 82  1  0
 23 83  1  0
 29 84  1  0
 29 85  1  0
 29 86  1  0
 30 87  1  0
 30 88  1  0
 31 89  1  0
 31 90  1  0
 31 91  1  0
 32 92  1  0
 37 93  1  0
 37 94  1  0
 37 95  1  0
 40 96  1  1
 44 97  1  0
 44 98  1  0
 44 99  1  0
 45100  1  0
 45101  1  0
 46102  1  0
 48103  1  0
 48104  1  0
 48105  1  0
 49106  1  0
 49107  1  0
 50108  1  0
 50109  1  0
 51110  1  0
 51111  1  0
 52112  1  1
 53113  1  0
 53114  1  0
 53115  1  0
 54116  1  0
 54117  1  0
 55118  1  0
 55119  1  0
 56120  1  0
 56121  1  0
 57122  1  1
 58123  1  0
 58124  1  0
 58125  1  0
 59126  1  0
 59127  1  0
 60128  1  0
 60129  1  0
 61130  1  0
 61131  1  0
 62132  1  6
 63133  1  0
 63134  1  0
 63135  1  0
 64136  1  0
 64137  1  0
 64138  1  0
M  END
>  <filename_input>  (5) 
8F4J_PHO_docked.sdf

>  <pdb_id>  (5) 
8F4J_PHO

>  <pose_rank>  (5) 
4

>  <num_atoms_heavy>  (5) 
64

>  <num_torsions>  (5) 
22

>  <pose>  (5) 
[-56.68002147825143, 63.885213080727404, 344.8141704174268, -0.020937219049025, -0.04421830302736765, 0.024475960232362606, 0.031548868492298474, -0.3870228458521633, -2.926308790104514, -0.24872727974325143, -0.4011601701077542, -5.8268632676250185, -5.581952850348073, 1.3041638106085174, -8.311031644477502, -5.8886899342522, -6.967371834009902, -8.070292921308766, 3.7647384010518725, -7.0257401459434545, -8.909745445176648, 5.657594881635588, 6.571292408525237, 7.3141375432096, -0.7091538220539556, 2.098561620728024, 1.6515227668446912, 2.000994831616106]

>  <energy>  (5) 
-700.0727442283994

>  <inter_energy>  (5) 
-740.7116347092684

>  <intra_energy>  (5) 
38.21155660396563

>  <rmsd>  (5) 
4.38438

>  <sdf_rank>  (5) 
0

$$$$

     RDKit          3D

138143  0  0  0  0  0  0  0  0999 V2000
  -56.1774   63.3106  345.1427 C   0  0  0  0  0  0  0  0  0  0  0  0
  -54.1558   62.7503  349.4793 C   0  0  0  0  0  0  0  0  0  0  0  0
  -53.2949   58.0287  348.3509 C   0  0  0  0  0  0  0  0  0  0  0  0
  -55.1626   58.5941  343.8592 C   0  0  0  0  0  0  0  0  0  0  0  0
  -55.0452   62.7609  347.2110 N   0  0  0  0  0  0  0  0  0  0  0  0
  -55.8005   63.6436  346.3901 C   0  0  0  0  0  0  0  0  0  0  0  0
  -56.0021   64.9779  347.0729 C   0  0  2  0  0  0  0  0  0  0  0  0
  -55.0482   64.8681  348.2997 C   0  0  1  0  0  0  0  0  0  0  0  0
  -54.7450   63.3705  348.3369 C   0  0  0  0  0  0  0  0  0  0  0  0
  -53.8131   65.6887  348.0617 C   0  0  0  0  0  0  0  0  0  0  0  0
  -57.4352   65.2312  347.4730 C   0  0  0  0  0  0  0  0  0  0  0  0
  -57.9093   66.5210  346.8299 C   0  0  0  0  0  0  0  0  0  0  0  0
  -57.5536   67.6747  347.7096 C   0  0  0  0  0  0  0  0  0  0  0  0
  -56.5027   68.3198  347.7258 O   0  0  0  0  0  0  0  0  0  0  0  0
  -58.5408   67.9962  348.5937 O   0  0  0  0  0  0  0  0  0  0  0  0
  -53.9639   60.4306  348.5876 N   0  0  0  0  0  0  0  0  0  0  0  0
  -53.8281   61.4307  349.5562 C   0  0  0  0  0  0  0  0  0  0  0  0
  -53.2202   60.7875  350.7474 C   0  0  0  0  0  0  0  0  0  0  0  0
  -52.9701   59.4617  350.4430 C   0  0  0  0  0  0  0  0  0  0  0  0
  -53.4423   59.1984  349.0438 C   0  0  0  0  0  0  0  0  0  0  0  0
  -52.9290   61.5901  351.9340 C   0  0  0  0  0  0  0  0  0  0  0  0
  -52.3292   58.4212  351.2042 C   0  0  0  0  0  0  0  0  0  0  0  0
  -52.7738   57.9097  352.3497 C   0  0  0  0  0  0  0  0  0  0  0  0
  -54.4289   58.5633  346.2270 N   0  0  0  0  0  0  0  0  0  0  0  0
  -53.7626   57.7256  347.0193 C   0  0  0  0  0  0  0  0  0  0  0  0
  -53.4535   56.4578  346.2812 C   0  0  0  0  0  0  0  0  0  0  0  0
  -53.9289   56.6417  344.9936 C   0  0  0  0  0  0  0  0  0  0  0  0
  -54.5803   57.9830  344.9407 C   0  0  0  0  0  0  0  0  0  0  0  0
  -52.7010   55.3242  346.8287 C   0  0  0  0  0  0  0  0  0  0  0  0
  -53.8754   55.7066  343.8544 C   0  0  0  0  0  0  0  0  0  0  0  0
  -55.1614   54.8991  343.7153 C   0  0  0  0  0  0  0  0  0  0  0  0
  -55.6919   60.7591  344.9719 N   0  0  0  0  0  0  0  0  0  0  0  0
  -55.6957   59.9171  343.8352 C   0  0  0  0  0  0  0  0  0  0  0  0
  -56.2618   60.6491  342.7277 C   0  0  0  0  0  0  0  0  0  0  0  0
  -56.4864   61.9631  343.1965 C   0  0  0  0  0  0  0  0  0  0  0  0
  -56.0656   61.9962  344.5781 C   0  0  0  0  0  0  0  0  0  0  0  0
  -56.5313   60.1613  341.3721 C   0  0  0  0  0  0  0  0  0  0  0  0
  -56.9321   63.2830  342.8039 C   0  0  0  0  0  0  0  0  0  0  0  0
  -57.3700   63.6718  341.7332 O   0  0  0  0  0  0  0  0  0  0  0  0
  -56.7028   64.2109  344.0395 C   0  0  2  0  0  0  0  0  0  0  0  0
  -55.7428   65.3046  343.6566 C   0  0  0  0  0  0  0  0  0  0  0  0
  -54.5213   65.2565  343.5675 O   0  0  0  0  0  0  0  0  0  0  0  0
  -56.3716   66.5037  343.3931 O   0  0  0  0  0  0  0  0  0  0  0  0
  -55.8255   67.6533  344.0282 C   0  0  0  0  0  0  0  0  0  0  0  0
  -59.9066   67.9499  348.1128 C   0  0  0  0  0  0  0  0  0  0  0  0
  -60.8189   68.2664  349.2438 C   0  0  0  0  0  0  0  0  0  0  0  0
  -61.7383   67.3763  349.6262 C   0  0  0  0  0  0  0  0  0  0  0  0
  -61.8233   66.0939  348.9056 C   0  0  0  0  0  0  0  0  0  0  0  0
  -62.7033   67.6007  350.7514 C   0  0  0  0  0  0  0  0  0  0  0  0
  -62.7461   66.4969  351.8157 C   0  0  0  0  0  0  0  0  0  0  0  0
  -61.6474   66.6928  352.8546 C   0  0  0  0  0  0  0  0  0  0  0  0
  -62.1676   66.9798  354.2598 C   0  0  2  0  0  0  0  0  0  0  0  0
  -61.5768   66.0033  355.2390 C   0  0  0  0  0  0  0  0  0  0  0  0
  -63.6947   66.9577  354.3485 C   0  0  0  0  0  0  0  0  0  0  0  0
  -64.2164   66.9539  355.7832 C   0  0  0  0  0  0  0  0  0  0  0  0
  -65.5357   67.6943  355.9649 C   0  0  0  0  0  0  0  0  0  0  0  0
  -65.6012   68.4351  357.2988 C   0  0  2  0  0  0  0  0  0  0  0  0
  -66.5813   67.7962  358.2795 C   0  0  0  0  0  0  0  0  0  0  0  0
  -66.0096   69.8780  357.0723 C   0  0  0  0  0  0  0  0  0  0  0  0
  -66.0978   70.6956  358.3448 C   0  0  0  0  0  0  0  0  0  0  0  0
  -64.6998   70.8773  358.9301 C   0  0  0  0  0  0  0  0  0  0  0  0
  -64.3533   72.3484  359.1154 C   0  0  2  0  0  0  0  0  0  0  0  0
  -62.8857   72.5031  359.4358 C   0  0  0  0  0  0  0  0  0  0  0  0
  -65.1815   72.9017  360.2483 C   0  0  0  0  0  0  0  0  0  0  0  0
  -53.9527   63.3810  350.3574 H   0  0  0  0  0  0  0  0  0  0  0  0
  -52.7556   57.2228  348.8702 H   0  0  0  0  0  0  0  0  0  0  0  0
  -55.2240   58.0122  342.9277 H   0  0  0  0  0  0  0  0  0  0  0  0
  -55.7798   65.8333  346.4179 H   0  0  0  0  0  0  0  0  0  0  0  0
  -55.4676   65.2406  349.2459 H   0  0  0  0  0  0  0  0  0  0  0  0
  -53.3747   65.9800  349.0276 H   0  0  0  0  0  0  0  0  0  0  0  0
  -53.0830   65.0955  347.4916 H   0  0  0  0  0  0  0  0  0  0  0  0
  -54.0770   66.5916  347.4916 H   0  0  0  0  0  0  0  0  0  0  0  0
  -58.0657   64.3964  347.1328 H   0  0  0  0  0  0  0  0  0  0  0  0
  -57.5053   65.3150  348.5676 H   0  0  0  0  0  0  0  0  0  0  0  0
  -57.4234   66.6429  345.8506 H   0  0  0  0  0  0  0  0  0  0  0  0
  -59.0004   66.4847  346.6952 H   0  0  0  0  0  0  0  0  0  0  0  0
  -54.3895   60.5737  347.6607 H   0  0  0  0  0  0  0  0  0  0  0  0
  -53.1431   61.0001  352.8374 H   0  0  0  0  0  0  0  0  0  0  0  0
  -51.8681   61.8808  351.9288 H   0  0  0  0  0  0  0  0  0  0  0  0
  -53.5567   62.4934  351.9288 H   0  0  0  0  0  0  0  0  0  0  0  0
  -51.3895   58.0131  350.8038 H   0  0  0  0  0  0  0  0  0  0  0  0
  -52.2061   57.1136  352.8536 H   0  0  0  0  0  0  0  0  0  0  0  0
  -53.7090   58.2830  352.7926 H   0  0  0  0  0  0  0  0  0  0  0  0
  -52.7270   55.3633  347.9277 H   0  0  0  0  0  0  0  0  0  0  0  0
  -53.1542   54.3828  346.4845 H   0  0  0  0  0  0  0  0  0  0  0  0
  -51.6576   55.3761  346.4845 H   0  0  0  0  0  0  0  0  0  0  0  0
  -53.7158   56.2818  342.9305 H   0  0  0  0  0  0  0  0  0  0  0  0
  -53.0500   55.0018  344.0328 H   0  0  0  0  0  0  0  0  0  0  0  0
  -55.5507   54.6546  344.7146 H   0  0  0  0  0  0  0  0  0  0  0  0
  -55.9082   55.4907  343.1655 H   0  0  0  0  0  0  0  0  0  0  0  0
  -54.9529   53.9695  343.1655 H   0  0  0  0  0  0  0  0  0  0  0  0
  -55.4469   60.4781  345.9321 H   0  0  0  0  0  0  0  0  0  0  0  0
  -57.0626   59.1997  341.4273 H   0  0  0  0  0  0  0  0  0  0  0  0
  -57.1530   60.8934  340.8358 H   0  0  0  0  0  0  0  0  0  0  0  0
  -55.5807   60.0247  340.8358 H   0  0  0  0  0  0  0  0  0  0  0  0
  -57.6173   64.7136  344.3874 H   0  0  0  0  0  0  0  0  0  0  0  0
  -55.8834   67.5314  345.1199 H   0  0  0  0  0  0  0  0  0  0  0  0
  -54.7741   67.7734  343.7279 H   0  0  0  0  0  0  0  0  0  0  0  0
  -56.3967   68.5441  343.7279 H   0  0  0  0  0  0  0  0  0  0  0  0
  -60.0419   68.6891  347.3095 H   0  0  0  0  0  0  0  0  0  0  0  0
  -60.1319   66.9485  347.7172 H   0  0  0  0  0  0  0  0  0  0  0  0
  -60.7366   69.2319  349.7645 H   0  0  0  0  0  0  0  0  0  0  0  0
  -61.8780   65.2687  349.6309 H   0  0  0  0  0  0  0  0  0  0  0  0
  -62.7238   66.0872  348.2740 H   0  0  0  0  0  0  0  0  0  0  0  0
  -60.9315   65.9685  348.2740 H   0  0  0  0  0  0  0  0  0  0  0  0
  -62.4291   68.5419  351.2504 H   0  0  0  0  0  0  0  0  0  0  0  0
  -63.7031   67.6164  350.2928 H   0  0  0  0  0  0  0  0  0  0  0  0
  -63.7242   66.5204  352.3185 H   0  0  0  0  0  0  0  0  0  0  0  0
  -62.5893   65.5276  351.3200 H   0  0  0  0  0  0  0  0  0  0  0  0
  -61.0385   65.7775  352.8912 H   0  0  0  0  0  0  0  0  0  0  0  0
  -61.0677   67.5743  352.5431 H   0  0  0  0  0  0  0  0  0  0  0  0
  -61.8505   68.0020  354.5141 H   0  0  0  0  0  0  0  0  0  0  0  0
  -61.7823   66.3429  356.2648 H   0  0  0  0  0  0  0  0  0  0  0  0
  -62.0264   65.0114  355.0841 H   0  0  0  0  0  0  0  0  0  0  0  0
  -60.4895   65.9412  355.0841 H   0  0  0  0  0  0  0  0  0  0  0  0
  -64.0871   67.8489  353.8367 H   0  0  0  0  0  0  0  0  0  0  0  0
  -64.0350   66.0246  353.8757 H   0  0  0  0  0  0  0  0  0  0  0  0
  -64.3602   65.9092  356.0963 H   0  0  0  0  0  0  0  0  0  0  0  0
  -63.4691   67.4804  356.3950 H   0  0  0  0  0  0  0  0  0  0  0  0
  -65.6484   68.4232  355.1488 H   0  0  0  0  0  0  0  0  0  0  0  0
  -66.3458   66.9503  355.9511 H   0  0  0  0  0  0  0  0  0  0  0  0
  -64.5949   68.3797  357.7396 H   0  0  0  0  0  0  0  0  0  0  0  0
  -66.2586   68.0066  359.3098 H   0  0  0  0  0  0  0  0  0  0  0  0
  -67.5862   68.2132  358.1176 H   0  0  0  0  0  0  0  0  0  0  0  0
  -66.6053   66.7084  358.1176 H   0  0  0  0  0  0  0  0  0  0  0  0
  -65.2688   70.3480  356.4088 H   0  0  0  0  0  0  0  0  0  0  0  0
  -67.0176   69.8603  356.6324 H   0  0  0  0  0  0  0  0  0  0  0  0
  -66.5315   71.6808  358.1184 H   0  0  0  0  0  0  0  0  0  0  0  0
  -66.7355   70.1732  359.0731 H   0  0  0  0  0  0  0  0  0  0  0  0
  -64.6546   70.3746  359.9075 H   0  0  0  0  0  0  0  0  0  0  0  0
  -63.9748   70.4401  358.2279 H   0  0  0  0  0  0  0  0  0  0  0  0
  -64.5687   72.8969  358.1866 H   0  0  0  0  0  0  0  0  0  0  0  0
  -62.7482   72.5176  360.5271 H   0  0  0  0  0  0  0  0  0  0  0  0
  -62.3258   71.6590  359.0069 H   0  0  0  0  0  0  0  0  0  0  0  0
  -62.5141   73.4454  359.0069 H   0  0  0  0  0  0  0  0  0  0  0  0
  -64.7352   72.6035  361.2085 H   0  0  0  0  0  0  0  0  0  0  0  0
  -65.2077   73.9994  360.1813 H   0  0  0  0  0  0  0  0  0  0  0  0
  -66.2056   72.5057  360.1813 H   0  0  0  0  0  0  0  0  0  0  0  0
  1  6  1  0
  1 36  2  0
  1 40  1  0
  2  9  2  0
  2 17  1  0
  3 20  1  0
  3 25  2  0
  4 28  1  0
  4 33  2  0
  5  6  2  0
  5  9  1  0
  6  7  1  0
  7  8  1  0
  7 11  1  0
  8  9  1  0
  8 10  1  0
 11 12  1  0
 12 13  1  0
 13 14  2  0
 13 15  1  0
 15 45  1  0
 16 17  1  0
 16 20  1  0
 17 18  2  0
 18 19  1  0
 18 21  1  0
 19 20  2  0
 19 22  1  0
 22 23  2  0
 24 25  1  0
 24 28  2  0
 25 26  1  0
 26 27  2  0
 26 29  1  0
 27 28  1  0
 27 30  1  0
 30 31  1  0
 32 33  1  0
 32 36  1  0
 33 34  1  0
 34 35  2  0
 34 37  1  0
 35 36  1  0
 35 38  1  0
 38 39  2  0
 38 40  1  0
 40 41  1  0
 41 42  2  0
 41 43  1  0
 43 44  1  0
 45 46  1  0
 46 47  2  3
 47 48  1  0
 47 49  1  0
 49 50  1  0
 50 51  1  0
 51 52  1  0
 52 53  1  0
 52 54  1  0
 54 55  1  0
 55 56  1  0
 56 57  1  0
 57 58  1  0
 57 59  1  0
 59 60  1  0
 60 61  1  0
 61 62  1  0
 62 63  1  0
 62 64  1  0
  2 65  1  0
  3 66  1  0
  4 67  1  0
  7 68  1  6
  8 69  1  1
 10 70  1  0
 10 71  1  0
 10 72  1  0
 11 73  1  0
 11 74  1  0
 12 75  1  0
 12 76  1  0
 16 77  1  0
 21 78  1  0
 21 79  1  0
 21 80  1  0
 22 81  1  0
 23 82  1  0
 23 83  1  0
 29 84  1  0
 29 85  1  0
 29 86  1  0
 30 87  1  0
 30 88  1  0
 31 89  1  0
 31 90  1  0
 31 91  1  0
 32 92  1  0
 37 93  1  0
 37 94  1  0
 37 95  1  0
 40 96  1  1
 44 97  1  0
 44 98  1  0
 44 99  1  0
 45100  1  0
 45101  1  0
 46102  1  0
 48103  1  0
 48104  1  0
 48105  1  0
 49106  1  0
 49107  1  0
 50108  1  0
 50109  1  0
 51110  1  0
 51111  1  0
 52112  1  1
 53113  1  0
 53114  1  0
 53115  1  0
 54116  1  0
 54117  1  0
 55118  1  0
 55119  1  0
 56120  1  0
 56121  1  0
 57122  1  1
 58123  1  0
 58124  1  0
 58125  1  0
 59126  1  0
 59127  1  0
 60128  1  0
 60129  1  0
 61130  1  0
 61131  1  0
 62132  1  6
 63133  1  0
 63134  1  0
 63135  1  0
 64136  1  0
 64137  1  0
 64138  1  0
M  END
>  <filename_input>  (6) 
8F4J_PHO_docked.sdf

>  <pdb_id>  (6) 
8F4J_PHO

>  <pose_rank>  (6) 
5

>  <num_atoms_heavy>  (6) 
64

>  <num_torsions>  (6) 
22

>  <pose>  (6) 
[-56.17739004128502, 63.310618159569806, 345.1427122625173, 1.8966241813713818, -3.549650805964832, 4.738889923103798, 0.7194973026322368, -0.2315804838746338, 3.36393844444629, -0.7199673814968853, 1.105877444828277, 1.5327898401910758, 1.2724083774243446, 2.169842445473117, 1.6891811897774631, 0.29056892510290727, -0.23820874591326782, -1.925406017286954, 4.832900530227018, 3.214167202409965, -2.2709613148723697, -2.5568515520415267, 0.5257674661560279, -0.6437142707860404, -1.8228649417910083, -2.030311019840885, -0.8489875451906468, 0.21618581527219283]

>  <energy>  (6) 
-672.5244468422288

>  <inter_energy>  (6) 
-678.3454178398428

>  <intra_energy>  (6) 
2.8412295645809427

>  <rmsd>  (6) 
4.88767

>  <sdf_rank>  (6) 
0

$$$$

     RDKit          3D

138143  0  0  0  0  0  0  0  0999 V2000
  -56.6721   63.7449  344.9112 C   0  0  0  0  0  0  0  0  0  0  0  0
  -54.9399   63.0160  349.3468 C   0  0  0  0  0  0  0  0  0  0  0  0
  -53.7833   58.4096  348.0237 C   0  0  0  0  0  0  0  0  0  0  0  0
  -55.3515   59.1592  343.4452 C   0  0  0  0  0  0  0  0  0  0  0  0
  -55.6655   63.1226  347.0233 N   0  0  0  0  0  0  0  0  0  0  0  0
  -56.4006   64.0195  346.1995 C   0  0  0  0  0  0  0  0  0  0  0  0
  -56.7117   65.3016  346.9388 C   0  0  2  0  0  0  0  0  0  0  0  0
  -55.8433   65.1600  348.2245 C   0  0  1  0  0  0  0  0  0  0  0  0
  -55.4745   63.6770  348.2004 C   0  0  0  0  0  0  0  0  0  0  0  0
  -54.6338   66.0446  348.1240 C   0  0  0  0  0  0  0  0  0  0  0  0
  -58.1799   65.4702  347.2459 C   0  0  0  0  0  0  0  0  0  0  0  0
  -58.5259   66.9472  347.2186 C   0  0  0  0  0  0  0  0  0  0  0  0
  -58.4068   67.5109  348.5969 C   0  0  0  0  0  0  0  0  0  0  0  0
  -57.4531   68.1204  349.0868 O   0  0  0  0  0  0  0  0  0  0  0  0
  -59.5076   67.2763  349.3667 O   0  0  0  0  0  0  0  0  0  0  0  0
  -54.5779   60.7630  348.3439 N   0  0  0  0  0  0  0  0  0  0  0  0
  -54.5577   61.7091  349.3740 C   0  0  0  0  0  0  0  0  0  0  0  0
  -54.0068   61.0231  350.5690 C   0  0  0  0  0  0  0  0  0  0  0  0
  -53.6746   59.7293  350.2105 C   0  0  0  0  0  0  0  0  0  0  0  0
  -54.0335   59.5291  348.7679 C   0  0  0  0  0  0  0  0  0  0  0  0
  -53.8381   61.7661  351.8167 C   0  0  0  0  0  0  0  0  0  0  0  0
  -53.0419   58.6737  350.9577 C   0  0  0  0  0  0  0  0  0  0  0  0
  -51.9938   58.8138  351.7661 C   0  0  0  0  0  0  0  0  0  0  0  0
  -54.7871   59.0200  345.8552 N   0  0  0  0  0  0  0  0  0  0  0  0
  -54.1407   58.1659  346.6465 C   0  0  0  0  0  0  0  0  0  0  0  0
  -53.7216   56.9579  345.8636 C   0  0  0  0  0  0  0  0  0  0  0  0
  -54.1124   57.1970  344.5568 C   0  0  0  0  0  0  0  0  0  0  0  0
  -54.8198   58.5105  344.5309 C   0  0  0  0  0  0  0  0  0  0  0  0
  -52.9582   55.8267  346.4011 C   0  0  0  0  0  0  0  0  0  0  0  0
  -53.9348   56.3338  343.3744 C   0  0  0  0  0  0  0  0  0  0  0  0
  -55.1850   55.5157  343.0696 C   0  0  0  0  0  0  0  0  0  0  0  0
  -56.0581   61.2306  344.6348 N   0  0  0  0  0  0  0  0  0  0  0  0
  -55.9422   60.4576  343.4557 C   0  0  0  0  0  0  0  0  0  0  0  0
  -56.4615   61.2290  342.3521 C   0  0  0  0  0  0  0  0  0  0  0  0
  -56.7794   62.5025  342.8756 C   0  0  0  0  0  0  0  0  0  0  0  0
  -56.4598   62.4720  344.2840 C   0  0  0  0  0  0  0  0  0  0  0  0
  -56.6112   60.8110  340.9553 C   0  0  0  0  0  0  0  0  0  0  0  0
  -57.2567   63.8232  342.5253 C   0  0  0  0  0  0  0  0  0  0  0  0
  -57.6351   64.2557  341.4485 O   0  0  0  0  0  0  0  0  0  0  0  0
  -57.1590   64.6857  343.8241 C   0  0  2  0  0  0  0  0  0  0  0  0
  -56.2259   65.8395  343.5744 C   0  0  0  0  0  0  0  0  0  0  0  0
  -56.4946   67.0276  343.4383 O   0  0  0  0  0  0  0  0  0  0  0  0
  -54.9052   65.4524  343.4823 O   0  0  0  0  0  0  0  0  0  0  0  0
  -53.9462   66.5002  343.4080 C   0  0  0  0  0  0  0  0  0  0  0  0
  -59.8793   68.2962  350.3261 C   0  0  0  0  0  0  0  0  0  0  0  0
  -60.2273   69.5388  349.5869 C   0  0  0  0  0  0  0  0  0  0  0  0
  -61.4973   69.7797  349.2510 C   0  0  0  0  0  0  0  0  0  0  0  0
  -62.5266   68.7940  349.6254 C   0  0  0  0  0  0  0  0  0  0  0  0
  -61.9491   70.9998  348.5060 C   0  0  0  0  0  0  0  0  0  0  0  0
  -62.3607   70.7687  347.0466 C   0  0  0  0  0  0  0  0  0  0  0  0
  -63.0545   71.9980  346.4703 C   0  0  0  0  0  0  0  0  0  0  0  0
  -63.0182   72.0727  344.9469 C   0  0  2  0  0  0  0  0  0  0  0  0
  -63.6721   73.3425  344.4761 C   0  0  0  0  0  0  0  0  0  0  0  0
  -63.6683   70.8629  344.2730 C   0  0  0  0  0  0  0  0  0  0  0  0
  -64.1417   71.1463  342.8496 C   0  0  0  0  0  0  0  0  0  0  0  0
  -64.2219   69.9082  341.9650 C   0  0  0  0  0  0  0  0  0  0  0  0
  -65.6648   69.4999  341.6757 C   0  0  2  0  0  0  0  0  0  0  0  0
  -66.2341   68.5596  342.7350 C   0  0  0  0  0  0  0  0  0  0  0  0
  -65.7510   68.8194  340.3232 C   0  0  0  0  0  0  0  0  0  0  0  0
  -65.2157   69.6586  339.1810 C   0  0  0  0  0  0  0  0  0  0  0  0
  -64.3232   68.7968  338.2919 C   0  0  0  0  0  0  0  0  0  0  0  0
  -63.1955   69.6088  337.6693 C   0  0  2  0  0  0  0  0  0  0  0  0
  -61.8676   68.9333  337.9156 C   0  0  0  0  0  0  0  0  0  0  0  0
  -63.1889   70.9834  338.2906 C   0  0  0  0  0  0  0  0  0  0  0  0
  -54.8290   63.6019  350.2712 H   0  0  0  0  0  0  0  0  0  0  0  0
  -53.2455   57.5979  348.5355 H   0  0  0  0  0  0  0  0  0  0  0  0
  -55.3196   58.6310  342.4808 H   0  0  0  0  0  0  0  0  0  0  0  0
  -56.4834   66.2027  346.3506 H   0  0  0  0  0  0  0  0  0  0  0  0
  -56.3457   65.4582  349.1565 H   0  0  0  0  0  0  0  0  0  0  0  0
  -54.2825   66.3015  349.1342 H   0  0  0  0  0  0  0  0  0  0  0  0
  -53.8363   65.5151  347.5821 H   0  0  0  0  0  0  0  0  0  0  0  0
  -54.8966   66.9650  347.5821 H   0  0  0  0  0  0  0  0  0  0  0  0
  -58.7776   64.9378  346.4915 H   0  0  0  0  0  0  0  0  0  0  0  0
  -58.4005   65.0560  348.2408 H   0  0  0  0  0  0  0  0  0  0  0  0
  -57.8333   67.4740  346.5457 H   0  0  0  0  0  0  0  0  0  0  0  0
  -59.5568   67.0762  346.8571 H   0  0  0  0  0  0  0  0  0  0  0  0
  -54.9428   60.9423  347.3975 H   0  0  0  0  0  0  0  0  0  0  0  0
  -53.9918   61.0893  352.6701 H   0  0  0  0  0  0  0  0  0  0  0  0
  -52.8219   62.1851  351.8594 H   0  0  0  0  0  0  0  0  0  0  0  0
  -54.5736   62.5829  351.8594 H   0  0  0  0  0  0  0  0  0  0  0  0
  -53.4616   57.6626  350.8511 H   0  0  0  0  0  0  0  0  0  0  0  0
  -51.5848   57.9390  352.2929 H   0  0  0  0  0  0  0  0  0  0  0  0
  -51.5367   59.8043  351.9074 H   0  0  0  0  0  0  0  0  0  0  0  0
  -52.9800   55.8589  347.5004 H   0  0  0  0  0  0  0  0  0  0  0  0
  -53.4056   54.8840  346.0530 H   0  0  0  0  0  0  0  0  0  0  0  0
  -51.9166   55.8888  346.0530 H   0  0  0  0  0  0  0  0  0  0  0  0
  -53.7040   56.9664  342.5047 H   0  0  0  0  0  0  0  0  0  0  0  0
  -53.1142   55.6327  343.5865 H   0  0  0  0  0  0  0  0  0  0  0  0
  -55.6591   55.2055  344.0124 H   0  0  0  0  0  0  0  0  0  0  0  0
  -55.8907   56.1273  342.4882 H   0  0  0  0  0  0  0  0  0  0  0  0
  -54.9071   54.6242  342.4882 H   0  0  0  0  0  0  0  0  0  0  0  0
  -55.8692   60.9041  345.5932 H   0  0  0  0  0  0  0  0  0  0  0  0
  -56.9819   59.7759  340.9201 H   0  0  0  0  0  0  0  0  0  0  0  0
  -57.3277   61.4744  340.4487 H   0  0  0  0  0  0  0  0  0  0  0  0
  -55.6365   60.8689  340.4487 H   0  0  0  0  0  0  0  0  0  0  0  0
  -58.1182   65.1280  344.1312 H   0  0  0  0  0  0  0  0  0  0  0  0
  -53.6624   66.8102  344.4246 H   0  0  0  0  0  0  0  0  0  0  0  0
  -53.0547   66.1439  342.8711 H   0  0  0  0  0  0  0  0  0  0  0  0
  -54.3798   67.3567  342.8711 H   0  0  0  0  0  0  0  0  0  0  0  0
  -60.7477   67.9569  350.9099 H   0  0  0  0  0  0  0  0  0  0  0  0
  -59.0418   68.4894  351.0126 H   0  0  0  0  0  0  0  0  0  0  0  0
  -59.4400   70.2582  349.3171 H   0  0  0  0  0  0  0  0  0  0  0  0
  -62.5924   68.7310  350.7216 H   0  0  0  0  0  0  0  0  0  0  0  0
  -63.4991   69.1063  349.2170 H   0  0  0  0  0  0  0  0  0  0  0  0
  -62.2567   67.8090  349.2170 H   0  0  0  0  0  0  0  0  0  0  0  0
  -62.8139   71.4214  349.0392 H   0  0  0  0  0  0  0  0  0  0  0  0
  -61.0786   71.6715  348.4712 H   0  0  0  0  0  0  0  0  0  0  0  0
  -61.4624   70.5505  346.4503 H   0  0  0  0  0  0  0  0  0  0  0  0
  -63.0629   69.9227  347.0116 H   0  0  0  0  0  0  0  0  0  0  0  0
  -64.1065   71.9840  346.7912 H   0  0  0  0  0  0  0  0  0  0  0  0
  -62.5095   72.8768  346.8456 H   0  0  0  0  0  0  0  0  0  0  0  0
  -61.9582   72.0671  344.6530 H   0  0  0  0  0  0  0  0  0  0  0  0
  -63.9801   73.9407  345.3463 H   0  0  0  0  0  0  0  0  0  0  0  0
  -62.9587   73.9189  343.8688 H   0  0  0  0  0  0  0  0  0  0  0  0
  -64.5557   73.0966  343.8688 H   0  0  0  0  0  0  0  0  0  0  0  0
  -62.9336   70.0449  344.2402 H   0  0  0  0  0  0  0  0  0  0  0  0
  -64.5568   70.5986  344.8652 H   0  0  0  0  0  0  0  0  0  0  0  0
  -65.1426   71.5996  342.9017 H   0  0  0  0  0  0  0  0  0  0  0  0
  -63.3969   71.8153  342.3938 H   0  0  0  0  0  0  0  0  0  0  0  0
  -63.7156   70.1202  341.0118 H   0  0  0  0  0  0  0  0  0  0  0  0
  -63.7364   69.0786  342.4997 H   0  0  0  0  0  0  0  0  0  0  0  0
  -66.2616   70.4239  341.6856 H   0  0  0  0  0  0  0  0  0  0  0  0
  -65.9982   68.9493  343.7362 H   0  0  0  0  0  0  0  0  0  0  0  0
  -67.3256   68.4911  342.6160 H   0  0  0  0  0  0  0  0  0  0  0  0
  -65.7890   67.5607  342.6160 H   0  0  0  0  0  0  0  0  0  0  0  0
  -65.1724   67.8849  340.3677 H   0  0  0  0  0  0  0  0  0  0  0  0
  -66.8178   68.6448  340.1198 H   0  0  0  0  0  0  0  0  0  0  0  0
  -66.0557   70.0498  338.5882 H   0  0  0  0  0  0  0  0  0  0  0  0
  -64.6304   70.4977  339.5851 H   0  0  0  0  0  0  0  0  0  0  0  0
  -63.8879   67.9896  338.8993 H   0  0  0  0  0  0  0  0  0  0  0  0
  -64.9412   68.3887  337.4785 H   0  0  0  0  0  0  0  0  0  0  0  0
  -63.3534   69.6854  336.5834 H   0  0  0  0  0  0  0  0  0  0  0  0
  -61.6959   68.8459  338.9987 H   0  0  0  0  0  0  0  0  0  0  0  0
  -61.8770   67.9304  337.4639 H   0  0  0  0  0  0  0  0  0  0  0  0
  -61.0625   69.5314  337.4639 H   0  0  0  0  0  0  0  0  0  0  0  0
  -63.1894   70.8905  339.3866 H   0  0  0  0  0  0  0  0  0  0  0  0
  -62.2882   71.5269  337.9690 H   0  0  0  0  0  0  0  0  0  0  0  0
  -64.0845   71.5354  337.9690 H   0  0  0  0  0  0  0  0  0  0  0  0
  1  6  1  0
  1 36  2  0
  1 40  1  0
  2  9  2  0
  2 17  1  0
  3 20  1  0
  3 25  2  0
  4 28  1  0
  4 33  2  0
  5  6  2  0
  5  9  1  0
  6  7  1  0
  7  8  1  0
  7 11  1  0
  8  9  1  0
  8 10  1  0
 11 12  1  0
 12 13  1  0
 13 14  2  0
 13 15  1  0
 15 45  1  0
 16 17  1  0
 16 20  1  0
 17 18  2  0
 18 19  1  0
 18 21  1  0
 19 20  2  0
 19 22  1  0
 22 23  2  0
 24 25  1  0
 24 28  2  0
 25 26  1  0
 26 27  2  0
 26 29  1  0
 27 28  1  0
 27 30  1  0
 30 31  1  0
 32 33  1  0
 32 36  1  0
 33 34  1  0
 34 35  2  0
 34 37  1  0
 35 36  1  0
 35 38  1  0
 38 39  2  0
 38 40  1  0
 40 41  1  0
 41 42  2  0
 41 43  1  0
 43 44  1  0
 45 46  1  0
 46 47  2  3
 47 48  1  0
 47 49  1  0
 49 50  1  0
 50 51  1  0
 51 52  1  0
 52 53  1  0
 52 54  1  0
 54 55  1  0
 55 56  1  0
 56 57  1  0
 57 58  1  0
 57 59  1  0
 59 60  1  0
 60 61  1  0
 61 62  1  0
 62 63  1  0
 62 64  1  0
  2 65  1  0
  3 66  1  0
  4 67  1  0
  7 68  1  6
  8 69  1  1
 10 70  1  0
 10 71  1  0
 10 72  1  0
 11 73  1  0
 11 74  1  0
 12 75  1  0
 12 76  1  0
 16 77  1  0
 21 78  1  0
 21 79  1  0
 21 80  1  0
 22 81  1  0
 23 82  1  0
 23 83  1  0
 29 84  1  0
 29 85  1  0
 29 86  1  0
 30 87  1  0
 30 88  1  0
 31 89  1  0
 31 90  1  0
 31 91  1  0
 32 92  1  0
 37 93  1  0
 37 94  1  0
 37 95  1  0
 40 96  1  1
 44 97  1  0
 44 98  1  0
 44 99  1  0
 45100  1  0
 45101  1  0
 46102  1  0
 48103  1  0
 48104  1  0
 48105  1  0
 49106  1  0
 49107  1  0
 50108  1  0
 50109  1  0
 51110  1  0
 51111  1  0
 52112  1  6
 53113  1  0
 53114  1  0
 53115  1  0
 54116  1  0
 54117  1  0
 55118  1  0
 55119  1  0
 56120  1  0
 56121  1  0
 57122  1  6
 58123  1  0
 58124  1  0
 58125  1  0
 59126  1  0
 59127  1  0
 60128  1  0
 60129  1  0
 61130  1  0
 61131  1  0
 62132  1  6
 63133  1  0
 63134  1  0
 63135  1  0
 64136  1  0
 64137  1  0
 64138  1  0
M  END
>  <filename_input>  (7) 
8F4J_PHO_docked.sdf

>  <pdb_id>  (7) 
8F4J_PHO

>  <pose_rank>  (7) 
6

>  <num_atoms_heavy>  (7) 
64

>  <num_torsions>  (7) 
22

>  <pose>  (7) 
[-56.67214353220751, 63.744942236548674, 344.9111825879866, 0.03822054725253856, -0.033760413408936644, -0.005563488782474733, -1.1469024954596636, -0.1992522268576069, 0.3467760734489539, 0.2555254855860277, -11.894626603046186, -4.854453275018047, -11.125963799520905, -5.958143516595251, -6.5878749418567795, -2.2643908480129356, -2.415964875161492, -0.44423604896854174, -0.7096663677983777, -2.0833615544932393, -2.4639181867185243, 3.864983091611533, -1.3599606300055913, -0.27249833526234196, 0.3340729599342307, -0.8664110553122906, 0.6925218271293807, -0.8731659393512392]

>  <energy>  (7) 
-644.7416802913172

>  <inter_energy>  (7) 
-660.1635802174678

>  <intra_energy>  (7) 
15.755984943688981

>  <rmsd>  (7) 
9.38387

>  <sdf_rank>  (7) 
0

$$$$

     RDKit          3D

138143  0  0  0  0  0  0  0  0999 V2000
  -56.4410   63.7898  345.3882 C   0  0  0  0  0  0  0  0  0  0  0  0
  -54.4261   63.1065  349.7102 C   0  0  0  0  0  0  0  0  0  0  0  0
  -53.3502   58.4881  348.3611 C   0  0  0  0  0  0  0  0  0  0  0  0
  -55.2106   59.1908  343.8858 C   0  0  0  0  0  0  0  0  0  0  0  0
  -55.2997   63.1894  347.4372 N   0  0  0  0  0  0  0  0  0  0  0  0
  -56.0877   64.0774  346.6536 C   0  0  0  0  0  0  0  0  0  0  0  0
  -56.3525   65.3666  347.3987 C   0  0  2  0  0  0  0  0  0  0  0  0
  -55.4030   65.2385  348.6272 C   0  0  1  0  0  0  0  0  0  0  0  0
  -55.0343   63.7557  348.5941 C   0  0  0  0  0  0  0  0  0  0  0  0
  -54.2037   66.1230  348.4404 C   0  0  0  0  0  0  0  0  0  0  0  0
  -57.7981   65.5370  347.7979 C   0  0  0  0  0  0  0  0  0  0  0  0
  -58.4132   66.6502  346.9706 C   0  0  0  0  0  0  0  0  0  0  0  0
  -57.8992   67.9681  347.4506 C   0  0  0  0  0  0  0  0  0  0  0  0
  -57.7533   68.3462  348.6153 O   0  0  0  0  0  0  0  0  0  0  0  0
  -57.5876   68.8219  346.4340 O   0  0  0  0  0  0  0  0  0  0  0  0
  -54.1260   60.8439  348.7084 N   0  0  0  0  0  0  0  0  0  0  0  0
  -54.0410   61.8003  349.7257 C   0  0  0  0  0  0  0  0  0  0  0  0
  -53.4134   61.1267  350.8896 C   0  0  0  0  0  0  0  0  0  0  0  0
  -53.1030   59.8296  350.5232 C   0  0  0  0  0  0  0  0  0  0  0  0
  -53.5537   59.6148  349.1087 C   0  0  0  0  0  0  0  0  0  0  0  0
  -53.1659   61.8822  352.1164 C   0  0  0  0  0  0  0  0  0  0  0  0
  -52.4221   58.7821  351.2386 C   0  0  0  0  0  0  0  0  0  0  0  0
  -52.5325   58.5312  352.5411 C   0  0  0  0  0  0  0  0  0  0  0  0
  -54.4923   59.0761  346.2557 N   0  0  0  0  0  0  0  0  0  0  0  0
  -53.7950   58.2304  347.0122 C   0  0  0  0  0  0  0  0  0  0  0  0
  -53.4253   57.0150  346.2160 C   0  0  0  0  0  0  0  0  0  0  0  0
  -53.8997   57.2408  344.9347 C   0  0  0  0  0  0  0  0  0  0  0  0
  -54.6092   58.5534  344.9414 C   0  0  0  0  0  0  0  0  0  0  0  0
  -52.6273   55.8899  346.7144 C   0  0  0  0  0  0  0  0  0  0  0  0
  -53.7973   56.3660  343.7519 C   0  0  0  0  0  0  0  0  0  0  0  0
  -55.1373   55.7358  343.3879 C   0  0  0  0  0  0  0  0  0  0  0  0
  -55.8423   61.2734  345.0978 N   0  0  0  0  0  0  0  0  0  0  0  0
  -55.8013   60.4888  343.9214 C   0  0  0  0  0  0  0  0  0  0  0  0
  -56.3917   61.2487  342.8459 C   0  0  0  0  0  0  0  0  0  0  0  0
  -56.6772   62.5271  343.3761 C   0  0  0  0  0  0  0  0  0  0  0  0
  -56.2676   62.5108  344.7613 C   0  0  0  0  0  0  0  0  0  0  0  0
  -56.6303   60.8166  341.4658 C   0  0  0  0  0  0  0  0  0  0  0  0
  -57.1779   63.8438  343.0442 C   0  0  0  0  0  0  0  0  0  0  0  0
  -57.6253   64.2652  341.9898 O   0  0  0  0  0  0  0  0  0  0  0  0
  -56.9982   64.7192  344.3255 C   0  0  2  0  0  0  0  0  0  0  0  0
  -56.0848   65.8713  344.0048 C   0  0  0  0  0  0  0  0  0  0  0  0
  -56.3580   67.0620  343.9048 O   0  0  0  0  0  0  0  0  0  0  0  0
  -54.7796   65.4792  343.7916 O   0  0  0  0  0  0  0  0  0  0  0  0
  -53.8326   66.5227  343.5991 C   0  0  0  0  0  0  0  0  0  0  0  0
  -57.5935   70.2401  346.7298 C   0  0  0  0  0  0  0  0  0  0  0  0
  -58.3962   70.9383  345.6907 C   0  0  0  0  0  0  0  0  0  0  0  0
  -58.1905   72.2361  345.4516 C   0  0  0  0  0  0  0  0  0  0  0  0
  -57.1643   72.9454  346.2358 C   0  0  0  0  0  0  0  0  0  0  0  0
  -58.9469   73.0288  344.4281 C   0  0  0  0  0  0  0  0  0  0  0  0
  -60.0732   72.2759  343.7090 C   0  0  0  0  0  0  0  0  0  0  0  0
  -61.3643   73.0870  343.7105 C   0  0  0  0  0  0  0  0  0  0  0  0
  -62.4932   72.4531  344.5176 C   0  0  2  0  0  0  0  0  0  0  0  0
  -63.6424   72.1039  343.6127 C   0  0  0  0  0  0  0  0  0  0  0  0
  -62.9769   73.3388  345.6674 C   0  0  0  0  0  0  0  0  0  0  0  0
  -63.2108   72.5696  346.9652 C   0  0  0  0  0  0  0  0  0  0  0  0
  -62.1331   71.5387  347.2775 C   0  0  0  0  0  0  0  0  0  0  0  0
  -62.2178   71.0351  348.7167 C   0  0  2  0  0  0  0  0  0  0  0  0
  -62.0997   72.1600  349.7420 C   0  0  0  0  0  0  0  0  0  0  0  0
  -61.1210   70.0208  348.9778 C   0  0  0  0  0  0  0  0  0  0  0  0
  -61.3333   69.1998  350.2333 C   0  0  0  0  0  0  0  0  0  0  0  0
  -61.4930   67.7290  349.8577 C   0  0  0  0  0  0  0  0  0  0  0  0
  -61.0737   66.8081  350.9956 C   0  0  2  0  0  0  0  0  0  0  0  0
  -62.2275   65.9236  351.4041 C   0  0  0  0  0  0  0  0  0  0  0  0
  -60.6418   67.6533  352.1681 C   0  0  0  0  0  0  0  0  0  0  0  0
  -54.2569   63.7017  350.6197 H   0  0  0  0  0  0  0  0  0  0  0  0
  -52.7794   57.6820  348.8453 H   0  0  0  0  0  0  0  0  0  0  0  0
  -55.2400   58.6530  342.9266 H   0  0  0  0  0  0  0  0  0  0  0  0
  -56.1637   66.2619  346.7881 H   0  0  0  0  0  0  0  0  0  0  0  0
  -55.8448   65.5455  349.5866 H   0  0  0  0  0  0  0  0  0  0  0  0
  -53.8071   66.4155  349.4238 H   0  0  0  0  0  0  0  0  0  0  0  0
  -53.4297   65.5779  347.8803 H   0  0  0  0  0  0  0  0  0  0  0  0
  -54.4959   67.0235  347.8803 H   0  0  0  0  0  0  0  0  0  0  0  0
  -58.3433   64.5990  347.6168 H   0  0  0  0  0  0  0  0  0  0  0  0
  -57.8602   65.7913  348.8663 H   0  0  0  0  0  0  0  0  0  0  0  0
  -58.1426   66.5139  345.9131 H   0  0  0  0  0  0  0  0  0  0  0  0
  -59.5080   66.6231  347.0747 H   0  0  0  0  0  0  0  0  0  0  0  0
  -54.5513   61.0135  347.7858 H   0  0  0  0  0  0  0  0  0  0  0  0
  -53.3748   61.2446  352.9881 H   0  0  0  0  0  0  0  0  0  0  0  0
  -52.1148   62.2056  352.1421 H   0  0  0  0  0  0  0  0  0  0  0  0
  -53.8219   62.7648  352.1421 H   0  0  0  0  0  0  0  0  0  0  0  0
  -51.7515   58.1319  350.6576 H   0  0  0  0  0  0  0  0  0  0  0  0
  -51.9661   57.7028  352.9916 H   0  0  0  0  0  0  0  0  0  0  0  0
  -53.1901   59.1523  353.1670 H   0  0  0  0  0  0  0  0  0  0  0  0
  -52.6317   55.8961  347.8144 H   0  0  0  0  0  0  0  0  0  0  0  0
  -53.0585   54.9453  346.3513 H   0  0  0  0  0  0  0  0  0  0  0  0
  -51.5933   55.9845  346.3513 H   0  0  0  0  0  0  0  0  0  0  0  0
  -53.4424   56.9629  342.8988 H   0  0  0  0  0  0  0  0  0  0  0  0
  -53.0944   55.5542  343.9904 H   0  0  0  0  0  0  0  0  0  0  0  0
  -55.6835   55.4788  344.3075 H   0  0  0  0  0  0  0  0  0  0  0  0
  -55.7297   56.4496  342.7968 H   0  0  0  0  0  0  0  0  0  0  0  0
  -54.9652   54.8242  342.7968 H   0  0  0  0  0  0  0  0  0  0  0  0
  -55.5917   60.9566  346.0453 H   0  0  0  0  0  0  0  0  0  0  0  0
  -57.1620   59.8536  341.4698 H   0  0  0  0  0  0  0  0  0  0  0  0
  -57.2402   61.5701  340.9459 H   0  0  0  0  0  0  0  0  0  0  0  0
  -55.6677   60.7018  340.9459 H   0  0  0  0  0  0  0  0  0  0  0  0
  -57.9363   65.1639  344.6892 H   0  0  0  0  0  0  0  0  0  0  0  0
  -53.4941   66.8957  344.5770 H   0  0  0  0  0  0  0  0  0  0  0  0
  -52.9705   66.1362  343.0357 H   0  0  0  0  0  0  0  0  0  0  0  0
  -54.3007   67.3434  343.0357 H   0  0  0  0  0  0  0  0  0  0  0  0
  -58.0410   70.4103  347.7202 H   0  0  0  0  0  0  0  0  0  0  0  0
  -56.5640   70.6276  346.7327 H   0  0  0  0  0  0  0  0  0  0  0  0
  -59.1579   70.3868  345.1201 H   0  0  0  0  0  0  0  0  0  0  0  0
  -57.3630   72.8081  347.3089 H   0  0  0  0  0  0  0  0  0  0  0  0
  -56.1712   72.5399  345.9919 H   0  0  0  0  0  0  0  0  0  0  0  0
  -57.1925   74.0176  345.9919 H   0  0  0  0  0  0  0  0  0  0  0  0
  -59.3903   73.8992  344.9338 H   0  0  0  0  0  0  0  0  0  0  0  0
  -58.2155   73.2925  343.6500 H   0  0  0  0  0  0  0  0  0  0  0  0
  -59.7704   72.0845  342.6689 H   0  0  0  0  0  0  0  0  0  0  0  0
  -60.2548   71.3294  344.2393 H   0  0  0  0  0  0  0  0  0  0  0  0
  -61.1495   74.0786  344.1354 H   0  0  0  0  0  0  0  0  0  0  0  0
  -61.7090   73.1395  342.6672 H   0  0  0  0  0  0  0  0  0  0  0  0
  -62.0847   71.5387  344.9726 H   0  0  0  0  0  0  0  0  0  0  0  0
  -64.5197   71.8373  344.2204 H   0  0  0  0  0  0  0  0  0  0  0  0
  -63.8852   72.9688  342.9779 H   0  0  0  0  0  0  0  0  0  0  0  0
  -63.3629   71.2501  342.9779 H   0  0  0  0  0  0  0  0  0  0  0  0
  -62.2194   74.1146  345.8530 H   0  0  0  0  0  0  0  0  0  0  0  0
  -63.9435   73.7673  345.3641 H   0  0  0  0  0  0  0  0  0  0  0  0
  -63.2485   73.2923  347.7937 H   0  0  0  0  0  0  0  0  0  0  0  0
  -64.1538   72.0168  346.8420 H   0  0  0  0  0  0  0  0  0  0  0  0
  -62.2518   70.6840  346.5953 H   0  0  0  0  0  0  0  0  0  0  0  0
  -61.1540   72.0225  347.1456 H   0  0  0  0  0  0  0  0  0  0  0  0
  -63.2100   70.5741  348.8311 H   0  0  0  0  0  0  0  0  0  0  0  0
  -62.1440   71.7376  350.7566 H   0  0  0  0  0  0  0  0  0  0  0  0
  -61.1417   72.6827  349.6040 H   0  0  0  0  0  0  0  0  0  0  0  0
  -62.9281   72.8704  349.6040 H   0  0  0  0  0  0  0  0  0  0  0  0
  -61.0714   69.3350  348.1192 H   0  0  0  0  0  0  0  0  0  0  0  0
  -60.1884   70.5868  349.1191 H   0  0  0  0  0  0  0  0  0  0  0  0
  -60.4652   69.3163  350.8988 H   0  0  0  0  0  0  0  0  0  0  0  0
  -62.2402   69.5472  350.7498 H   0  0  0  0  0  0  0  0  0  0  0  0
  -62.5481   67.5361  349.6135 H   0  0  0  0  0  0  0  0  0  0  0  0
  -60.8442   67.5235  348.9936 H   0  0  0  0  0  0  0  0  0  0  0  0
  -60.2424   66.1686  350.6640 H   0  0  0  0  0  0  0  0  0  0  0  0
  -62.2850   65.8795  352.5017 H   0  0  0  0  0  0  0  0  0  0  0  0
  -63.1654   66.3363  351.0041 H   0  0  0  0  0  0  0  0  0  0  0  0
  -62.0725   64.9107  351.0041 H   0  0  0  0  0  0  0  0  0  0  0  0
  -60.9036   67.1410  353.1056 H   0  0  0  0  0  0  0  0  0  0  0  0
  -59.5537   67.8090  352.1268 H   0  0  0  0  0  0  0  0  0  0  0  0
  -61.1533   68.6263  352.1268 H   0  0  0  0  0  0  0  0  0  0  0  0
  1  6  1  0
  1 36  2  0
  1 40  1  0
  2  9  2  0
  2 17  1  0
  3 20  1  0
  3 25  2  0
  4 28  1  0
  4 33  2  0
  5  6  2  0
  5  9  1  0
  6  7  1  0
  7  8  1  0
  7 11  1  0
  8  9  1  0
  8 10  1  0
 11 12  1  0
 12 13  1  0
 13 14  2  0
 13 15  1  0
 15 45  1  0
 16 17  1  0
 16 20  1  0
 17 18  2  0
 18 19  1  0
 18 21  1  0
 19 20  2  0
 19 22  1  0
 22 23  2  0
 24 25  1  0
 24 28  2  0
 25 26  1  0
 26 27  2  0
 26 29  1  0
 27 28  1  0
 27 30  1  0
 30 31  1  0
 32 33  1  0
 32 36  1  0
 33 34  1  0
 34 35  2  0
 34 37  1  0
 35 36  1  0
 35 38  1  0
 38 39  2  0
 38 40  1  0
 40 41  1  0
 41 42  2  0
 41 43  1  0
 43 44  1  0
 45 46  1  0
 46 47  2  3
 47 48  1  0
 47 49  1  0
 49 50  1  0
 50 51  1  0
 51 52  1  0
 52 53  1  0
 52 54  1  0
 54 55  1  0
 55 56  1  0
 56 57  1  0
 57 58  1  0
 57 59  1  0
 59 60  1  0
 60 61  1  0
 61 62  1  0
 62 63  1  0
 62 64  1  0
  2 65  1  0
  3 66  1  0
  4 67  1  0
  7 68  1  6
  8 69  1  1
 10 70  1  0
 10 71  1  0
 10 72  1  0
 11 73  1  0
 11 74  1  0
 12 75  1  0
 12 76  1  0
 16 77  1  0
 21 78  1  0
 21 79  1  0
 21 80  1  0
 22 81  1  0
 23 82  1  0
 23 83  1  0
 29 84  1  0
 29 85  1  0
 29 86  1  0
 30 87  1  0
 30 88  1  0
 31 89  1  0
 31 90  1  0
 31 91  1  0
 32 92  1  0
 37 93  1  0
 37 94  1  0
 37 95  1  0
 40 96  1  1
 44 97  1  0
 44 98  1  0
 44 99  1  0
 45100  1  0
 45101  1  0
 46102  1  0
 48103  1  0
 48104  1  0
 48105  1  0
 49106  1  0
 49107  1  0
 50108  1  0
 50109  1  0
 51110  1  0
 51111  1  0
 52112  1  1
 53113  1  0
 53114  1  0
 53115  1  0
 54116  1  0
 54117  1  0
 55118  1  0
 55119  1  0
 56120  1  0
 56121  1  0
 57122  1  6
 58123  1  0
 58124  1  0
 58125  1  0
 59126  1  0
 59127  1  0
 60128  1  0
 60129  1  0
 61130  1  0
 61131  1  0
 62132  1  6
 63133  1  0
 63134  1  0
 63135  1  0
 64136  1  0
 64137  1  0
 64138  1  0
M  END
>  <filename_input>  (8) 
8F4J_PHO_docked.sdf

>  <pdb_id>  (8) 
8F4J_PHO

>  <pose_rank>  (8) 
7

>  <num_atoms_heavy>  (8) 
64

>  <num_torsions>  (8) 
22

>  <pose>  (8) 
[-56.44104215600706, 63.78979481834639, 345.38820077916256, -4.188434034213162, -4.554926552579733, 0.814500692094867, 0.25334533043136215, -0.019586236866818464, 0.37925271004781386, 0.22109124241471564, 20.177911784377432, 8.049482366262467, -7.292829546648891, -6.969113300320541, -3.6790110539184315, 5.939749196812997, 8.343739426818019, 5.179140363761451, 0.8194524240596529, 5.265188147266298, -1.3110124144678272, -4.386316353522163, -0.346771261636981, 0.2513685621578358, -1.5589195075669715, -1.1723043524095222, -0.3272188562184415, -1.0045728867743955]

>  <energy>  (8) 
-641.1028564366006

>  <inter_energy>  (8) 
-653.7978929473251

>  <intra_energy>  (8) 
10.333228074002843

>  <rmsd>  (8) 
6.81325

>  <sdf_rank>  (8) 
0

$$$$

     RDKit          3D

138143  0  0  0  0  0  0  0  0999 V2000
  -56.1098   64.3796  345.2179 C   0  0  0  0  0  0  0  0  0  0  0  0
  -53.7505   62.5116  348.9797 C   0  0  0  0  0  0  0  0  0  0  0  0
  -54.0459   58.0839  346.8313 C   0  0  0  0  0  0  0  0  0  0  0  0
  -56.2734   59.9634  342.8957 C   0  0  0  0  0  0  0  0  0  0  0  0
  -54.8812   63.1877  346.9300 N   0  0  0  0  0  0  0  0  0  0  0  0
  -55.5255   64.3527  346.4290 C   0  0  0  0  0  0  0  0  0  0  0  0
  -55.3582   65.5155  347.3815 C   0  0  2  0  0  0  0  0  0  0  0  0
  -54.3099   64.9645  348.3937 C   0  0  1  0  0  0  0  0  0  0  0  0
  -54.3273   63.4667  348.0897 C   0  0  0  0  0  0  0  0  0  0  0  0
  -52.9667   65.5800  348.1240 C   0  0  0  0  0  0  0  0  0  0  0  0
  -56.6476   65.9284  348.0486 C   0  0  0  0  0  0  0  0  0  0  0  0
  -56.4560   67.2844  348.7018 C   0  0  0  0  0  0  0  0  0  0  0  0
  -55.5006   67.1556  349.8430 C   0  0  0  0  0  0  0  0  0  0  0  0
  -55.2739   66.1589  350.5329 O   0  0  0  0  0  0  0  0  0  0  0  0
  -54.8423   68.3168  350.1217 O   0  0  0  0  0  0  0  0  0  0  0  0
  -54.1600   60.4532  347.6350 N   0  0  0  0  0  0  0  0  0  0  0  0
  -53.7019   61.1710  348.7448 C   0  0  0  0  0  0  0  0  0  0  0  0
  -53.1061   60.1797  349.6745 C   0  0  0  0  0  0  0  0  0  0  0  0
  -53.1794   58.9321  349.0819 C   0  0  0  0  0  0  0  0  0  0  0  0
  -53.8596   59.0768  347.7528 C   0  0  0  0  0  0  0  0  0  0  0  0
  -52.5129   60.6317  350.9318 C   0  0  0  0  0  0  0  0  0  0  0  0
  -52.6866   57.6499  349.5130 C   0  0  0  0  0  0  0  0  0  0  0  0
  -52.1332   56.7265  348.7303 C   0  0  0  0  0  0  0  0  0  0  0  0
  -55.2861   59.2741  345.0626 N   0  0  0  0  0  0  0  0  0  0  0  0
  -54.7221   58.1745  345.5592 C   0  0  0  0  0  0  0  0  0  0  0  0
  -54.7776   57.0684  344.5487 C   0  0  0  0  0  0  0  0  0  0  0  0
  -55.3533   57.6172  343.4151 C   0  0  0  0  0  0  0  0  0  0  0  0
  -55.7086   59.0318  343.7295 C   0  0  0  0  0  0  0  0  0  0  0  0
  -54.2216   55.7243  344.7370 C   0  0  0  0  0  0  0  0  0  0  0  0
  -55.6343   56.9654  342.1224 C   0  0  0  0  0  0  0  0  0  0  0  0
  -56.9798   57.3927  341.5459 C   0  0  0  0  0  0  0  0  0  0  0  0
  -56.1975   61.8855  344.4784 N   0  0  0  0  0  0  0  0  0  0  0  0
  -56.5142   61.3327  343.2154 C   0  0  0  0  0  0  0  0  0  0  0  0
  -57.0408   62.3829  342.3773 C   0  0  0  0  0  0  0  0  0  0  0  0
  -56.9256   63.5779  343.1225 C   0  0  0  0  0  0  0  0  0  0  0  0
  -56.3460   63.2260  344.3981 C   0  0  0  0  0  0  0  0  0  0  0  0
  -57.5666   62.2661  341.0141 C   0  0  0  0  0  0  0  0  0  0  0  0
  -57.1263   65.0104  343.0709 C   0  0  0  0  0  0  0  0  0  0  0  0
  -57.5965   65.7005  342.1810 O   0  0  0  0  0  0  0  0  0  0  0  0
  -56.5610   65.5828  344.4100 C   0  0  2  0  0  0  0  0  0  0  0  0
  -55.4443   66.5419  344.0976 C   0  0  0  0  0  0  0  0  0  0  0  0
  -55.3159   67.7096  344.4472 O   0  0  0  0  0  0  0  0  0  0  0  0
  -54.4671   65.9869  343.2978 O   0  0  0  0  0  0  0  0  0  0  0  0
  -53.1248   66.1526  343.7378 C   0  0  0  0  0  0  0  0  0  0  0  0
  -53.9565   68.3217  351.2681 C   0  0  0  0  0  0  0  0  0  0  0  0
  -54.6454   69.0012  352.3973 C   0  0  0  0  0  0  0  0  0  0  0  0
  -54.1850   70.1699  352.8511 C   0  0  0  0  0  0  0  0  0  0  0  0
  -52.9929   70.7558  352.2133 C   0  0  0  0  0  0  0  0  0  0  0  0
  -54.8067   70.9319  353.9829 C   0  0  0  0  0  0  0  0  0  0  0  0
  -56.3395   70.9072  354.0332 C   0  0  0  0  0  0  0  0  0  0  0  0
  -56.8581   69.4959  354.2863 C   0  0  0  0  0  0  0  0  0  0  0  0
  -58.3688   69.4173  354.4848 C   0  0  2  0  0  0  0  0  0  0  0  0
  -58.7023   68.3579  355.4987 C   0  0  0  0  0  0  0  0  0  0  0  0
  -59.1306   69.1607  353.1832 C   0  0  0  0  0  0  0  0  0  0  0  0
  -60.2323   68.1133  353.3245 C   0  0  0  0  0  0  0  0  0  0  0  0
  -60.6532   67.4749  352.0066 C   0  0  0  0  0  0  0  0  0  0  0  0
  -61.0226   66.0024  352.1723 C   0  0  2  0  0  0  0  0  0  0  0  0
  -62.5077   65.7380  351.9372 C   0  0  0  0  0  0  0  0  0  0  0  0
  -60.6582   65.5289  353.5662 C   0  0  0  0  0  0  0  0  0  0  0  0
  -61.8498   65.0983  354.3969 C   0  0  0  0  0  0  0  0  0  0  0  0
  -61.4153   64.0235  355.3898 C   0  0  0  0  0  0  0  0  0  0  0  0
  -60.0230   64.2966  355.9426 C   0  0  2  0  0  0  0  0  0  0  0  0
  -59.3313   62.9976  356.2813 C   0  0  0  0  0  0  0  0  0  0  0  0
  -60.1530   65.1418  357.1853 C   0  0  0  0  0  0  0  0  0  0  0  0
  -53.3158   62.8835  349.9192 H   0  0  0  0  0  0  0  0  0  0  0  0
  -53.6310   57.0986  347.0902 H   0  0  0  0  0  0  0  0  0  0  0  0
  -56.5666   59.6244  341.8911 H   0  0  0  0  0  0  0  0  0  0  0  0
  -55.0400   66.4404  346.8782 H   0  0  0  0  0  0  0  0  0  0  0  0
  -54.5255   65.1866  349.4492 H   0  0  0  0  0  0  0  0  0  0  0  0
  -52.4696   65.8078  349.0785 H   0  0  0  0  0  0  0  0  0  0  0  0
  -52.3493   64.8750  347.5481 H   0  0  0  0  0  0  0  0  0  0  0  0
  -53.0976   66.5080  347.5481 H   0  0  0  0  0  0  0  0  0  0  0  0
  -57.4478   65.9916  347.2965 H   0  0  0  0  0  0  0  0  0  0  0  0
  -56.9251   65.1856  348.8109 H   0  0  0  0  0  0  0  0  0  0  0  0
  -56.0525   67.9934  347.9638 H   0  0  0  0  0  0  0  0  0  0  0  0
  -57.4236   67.6533  349.0728 H   0  0  0  0  0  0  0  0  0  0  0  0
  -54.6531   60.8736  346.8344 H   0  0  0  0  0  0  0  0  0  0  0  0
  -53.0736   60.2044  351.7763 H   0  0  0  0  0  0  0  0  0  0  0  0
  -51.4650   60.3011  350.9827 H   0  0  0  0  0  0  0  0  0  0  0  0
  -52.5538   61.7298  350.9827 H   0  0  0  0  0  0  0  0  0  0  0  0
  -52.7751   57.4126  350.5834 H   0  0  0  0  0  0  0  0  0  0  0  0
  -51.7878   55.7753  349.1615 H   0  0  0  0  0  0  0  0  0  0  0  0
  -52.0212   56.9145  347.6523 H   0  0  0  0  0  0  0  0  0  0  0  0
  -54.1335   55.5113  345.8125 H   0  0  0  0  0  0  0  0  0  0  0  0
  -54.8871   54.9835  344.2698 H   0  0  0  0  0  0  0  0  0  0  0  0
  -53.2272   55.6701  344.2698 H   0  0  0  0  0  0  0  0  0  0  0  0
  -54.8411   57.2347  341.4094 H   0  0  0  0  0  0  0  0  0  0  0  0
  -55.6672   55.8788  342.2906 H   0  0  0  0  0  0  0  0  0  0  0  0
  -57.6770   57.6141  342.3674 H   0  0  0  0  0  0  0  0  0  0  0  0
  -56.8446   58.2921  340.9273 H   0  0  0  0  0  0  0  0  0  0  0  0
  -57.3883   56.5801  340.9273 H   0  0  0  0  0  0  0  0  0  0  0  0
  -55.9049   61.3582  345.3134 H   0  0  0  0  0  0  0  0  0  0  0  0
  -58.6398   62.0278  341.0542 H   0  0  0  0  0  0  0  0  0  0  0  0
  -57.4221   63.2182  340.4825 H   0  0  0  0  0  0  0  0  0  0  0  0
  -57.0327   61.4647  340.4825 H   0  0  0  0  0  0  0  0  0  0  0  0
  -57.3007   66.1525  344.9916 H   0  0  0  0  0  0  0  0  0  0  0  0
  -53.0972   66.1560  344.8375 H   0  0  0  0  0  0  0  0  0  0  0  0
  -52.5095   65.3236  343.3582 H   0  0  0  0  0  0  0  0  0  0  0  0
  -52.7296   67.1064  343.3582 H   0  0  0  0  0  0  0  0  0  0  0  0
  -53.7118   67.2874  351.5517 H   0  0  0  0  0  0  0  0  0  0  0  0
  -53.0255   68.8531  351.0213 H   0  0  0  0  0  0  0  0  0  0  0  0
  -55.5326   68.5421  352.8579 H   0  0  0  0  0  0  0  0  0  0  0  0
  -52.2934   71.0996  352.9894 H   0  0  0  0  0  0  0  0  0  0  0  0
  -52.5016   69.9965  351.5871 H   0  0  0  0  0  0  0  0  0  0  0  0
  -53.2939   71.6086  351.5871 H   0  0  0  0  0  0  0  0  0  0  0  0
  -54.4299   70.5067  354.9248 H   0  0  0  0  0  0  0  0  0  0  0  0
  -54.5268   71.9843  353.8277 H   0  0  0  0  0  0  0  0  0  0  0  0
  -56.6829   71.5668  354.8437 H   0  0  0  0  0  0  0  0  0  0  0  0
  -56.7264   71.2528  353.0632 H   0  0  0  0  0  0  0  0  0  0  0  0
  -56.5892   68.8685  353.4237 H   0  0  0  0  0  0  0  0  0  0  0  0
  -56.3952   69.1493  355.2220 H   0  0  0  0  0  0  0  0  0  0  0  0
  -58.6932   70.4018  354.8527 H   0  0  0  0  0  0  0  0  0  0  0  0
  -58.5736   68.7666  356.5118 H   0  0  0  0  0  0  0  0  0  0  0  0
  -59.7452   68.0358  355.3629 H   0  0  0  0  0  0  0  0  0  0  0  0
  -58.0318   67.4964  355.3629 H   0  0  0  0  0  0  0  0  0  0  0  0
  -59.5874   70.1057  352.8540 H   0  0  0  0  0  0  0  0  0  0  0  0
  -58.4054   68.7740  352.4521 H   0  0  0  0  0  0  0  0  0  0  0  0
  -59.8704   67.3188  353.9937 H   0  0  0  0  0  0  0  0  0  0  0  0
  -61.1161   68.6329  353.7231 H   0  0  0  0  0  0  0  0  0  0  0  0
  -61.5256   68.0171  351.6128 H   0  0  0  0  0  0  0  0  0  0  0  0
  -59.8002   67.5338  351.3146 H   0  0  0  0  0  0  0  0  0  0  0  0
  -60.4542   65.4476  351.4114 H   0  0  0  0  0  0  0  0  0  0  0  0
  -63.0216   65.6465  352.9054 H   0  0  0  0  0  0  0  0  0  0  0  0
  -62.9432   66.5727  351.3683 H   0  0  0  0  0  0  0  0  0  0  0  0
  -62.6283   64.8043  351.3683 H   0  0  0  0  0  0  0  0  0  0  0  0
  -59.9727   64.6736  353.4737 H   0  0  0  0  0  0  0  0  0  0  0  0
  -60.1982   66.3831  354.0846 H   0  0  0  0  0  0  0  0  0  0  0  0
  -62.2470   65.9652  354.9453 H   0  0  0  0  0  0  0  0  0  0  0  0
  -62.6306   64.6935  353.7363 H   0  0  0  0  0  0  0  0  0  0  0  0
  -62.1316   63.9987  356.2243 H   0  0  0  0  0  0  0  0  0  0  0  0
  -61.3914   63.0587  354.8618 H   0  0  0  0  0  0  0  0  0  0  0  0
  -59.4243   64.8254  355.1864 H   0  0  0  0  0  0  0  0  0  0  0  0
  -59.2727   62.8876  357.3742 H   0  0  0  0  0  0  0  0  0  0  0  0
  -59.9015   62.1574  355.8582 H   0  0  0  0  0  0  0  0  0  0  0  0
  -58.3160   63.0017  355.8582 H   0  0  0  0  0  0  0  0  0  0  0  0
  -60.0547   64.5029  358.0753 H   0  0  0  0  0  0  0  0  0  0  0  0
  -59.3617   65.9060  357.1933 H   0  0  0  0  0  0  0  0  0  0  0  0
  -61.1372   65.6330  357.1933 H   0  0  0  0  0  0  0  0  0  0  0  0
  1  6  1  0
  1 36  2  0
  1 40  1  0
  2  9  2  0
  2 17  1  0
  3 20  1  0
  3 25  2  0
  4 28  1  0
  4 33  2  0
  5  6  2  0
  5  9  1  0
  6  7  1  0
  7  8  1  0
  7 11  1  0
  8  9  1  0
  8 10  1  0
 11 12  1  0
 12 13  1  0
 13 14  2  0
 13 15  1  0
 15 45  1  0
 16 17  1  0
 16 20  1  0
 17 18  2  0
 18 19  1  0
 18 21  1  0
 19 20  2  0
 19 22  1  0
 22 23  2  0
 24 25  1  0
 24 28  2  0
 25 26  1  0
 26 27  2  0
 26 29  1  0
 27 28  1  0
 27 30  1  0
 30 31  1  0
 32 33  1  0
 32 36  1  0
 33 34  1  0
 34 35  2  0
 34 37  1  0
 35 36  1  0
 35 38  1  0
 38 39  2  0
 38 40  1  0
 40 41  1  0
 41 42  2  0
 41 43  1  0
 43 44  1  0
 45 46  1  0
 46 47  2  3
 47 48  1  0
 47 49  1  0
 49 50  1  0
 50 51  1  0
 51 52  1  0
 52 53  1  0
 52 54  1  0
 54 55  1  0
 55 56  1  0
 56 57  1  0
 57 58  1  0
 57 59  1  0
 59 60  1  0
 60 61  1  0
 61 62  1  0
 62 63  1  0
 62 64  1  0
  2 65  1  0
  3 66  1  0
  4 67  1  0
  7 68  1  6
  8 69  1  1
 10 70  1  0
 10 71  1  0
 10 72  1  0
 11 73  1  0
 11 74  1  0
 12 75  1  0
 12 76  1  0
 16 77  1  0
 21 78  1  0
 21 79  1  0
 21 80  1  0
 22 81  1  0
 23 82  1  0
 23 83  1  0
 29 84  1  0
 29 85  1  0
 29 86  1  0
 30 87  1  0
 30 88  1  0
 31 89  1  0
 31 90  1  0
 31 91  1  0
 32 92  1  0
 37 93  1  0
 37 94  1  0
 37 95  1  0
 40 96  1  1
 44 97  1  0
 44 98  1  0
 44 99  1  0
 45100  1  0
 45101  1  0
 46102  1  0
 48103  1  0
 48104  1  0
 48105  1  0
 49106  1  0
 49107  1  0
 50108  1  0
 50109  1  0
 51110  1  0
 51111  1  0
 52112  1  1
 53113  1  0
 53114  1  0
 53115  1  0
 54116  1  0
 54117  1  0
 55118  1  0
 55119  1  0
 56120  1  0
 56121  1  0
 57122  1  6
 58123  1  0
 58124  1  0
 58125  1  0
 59126  1  0
 59127  1  0
 60128  1  0
 60129  1  0
 61130  1  0
 61131  1  0
 62132  1  6
 63133  1  0
 63134  1  0
 63135  1  0
 64136  1  0
 64137  1  0
 64138  1  0
M  END
>  <filename_input>  (9) 
8F4J_PHO_docked.sdf

>  <pdb_id>  (9) 
8F4J_PHO

>  <pose_rank>  (9) 
8

>  <num_atoms_heavy>  (9) 
64

>  <num_torsions>  (9) 
22

>  <pose>  (9) 
[-56.10984488920622, 64.37964073671525, 345.2179050007769, -3.1410284665668935, -3.055051350150512, 3.981252034126299, -2.8548684621721767, -5.744260425047429, 0.6549782491274219, 0.9893923051283348, 0.3502719067350913, 27.002949265291985, 36.97142850704142, 56.20881204186812, 47.08243997988472, 19.26657595190802, 1.3214516655748991, 48.00439402281313, 56.12527127088361, 23.624329600030993, -15.398071237590518, -1.6120019273075226, 5.561877697114758, -3.0515028714075334, 3.351848232762326, -0.5860635680596373, -2.3535791215351716, 0.5496956640631739]

>  <energy>  (9) 
-559.6936775280609

>  <inter_energy>  (9) 
-684.5004353263163

>  <intra_energy>  (9) 
126.05743619896349

>  <rmsd>  (9) 
4.52017

>  <sdf_rank>  (9) 
0

$$$$

     RDKit          3D

138143  0  0  0  0  0  0  0  0999 V2000
  -54.2930   59.0467  348.0227 C   0  0  0  0  0  0  0  0  0  0  0  0
  -55.9605   59.5108  343.5271 C   0  0  0  0  0  0  0  0  0  0  0  0
  -56.8390   64.2722  344.4574 C   0  0  0  0  0  0  0  0  0  0  0  0
  -54.9744   63.9006  348.9705 C   0  0  0  0  0  0  0  0  0  0  0  0
  -55.1086   59.5885  345.8085 N   0  0  0  0  0  0  0  0  0  0  0  0
  -54.6801   58.6575  346.7949 C   0  0  0  0  0  0  0  0  0  0  0  0
  -54.6321   57.2552  346.2306 C   0  0  2  0  0  0  0  0  0  0  0  0
  -54.8381   57.5056  344.7069 C   0  0  1  0  0  0  0  0  0  0  0  0
  -55.3439   58.9476  344.6845 C   0  0  0  0  0  0  0  0  0  0  0  0
  -53.5310   57.3542  343.9829 C   0  0  0  0  0  0  0  0  0  0  0  0
  -55.6818   56.3421  346.8158 C   0  0  0  0  0  0  0  0  0  0  0  0
  -57.0397   57.0091  346.7002 C   0  0  0  0  0  0  0  0  0  0  0  0
  -57.8653   56.6658  347.8969 C   0  0  0  0  0  0  0  0  0  0  0  0
  -58.3690   57.4369  348.7169 O   0  0  0  0  0  0  0  0  0  0  0  0
  -58.0329   55.3226  348.0623 O   0  0  0  0  0  0  0  0  0  0  0  0
  -56.3292   61.8211  344.3871 N   0  0  0  0  0  0  0  0  0  0  0  0
  -56.3950   60.7983  343.4352 C   0  0  0  0  0  0  0  0  0  0  0  0
  -57.0404   61.3797  342.2320 C   0  0  0  0  0  0  0  0  0  0  0  0
  -57.2896   62.7176  342.4785 C   0  0  0  0  0  0  0  0  0  0  0  0
  -56.8371   63.0360  343.8728 C   0  0  0  0  0  0  0  0  0  0  0  0
  -57.2323   60.5522  341.0422 C   0  0  0  0  0  0  0  0  0  0  0  0
  -57.8251   63.7515  341.6317 C   0  0  0  0  0  0  0  0  0  0  0  0
  -57.3492   64.9896  341.5206 C   0  0  0  0  0  0  0  0  0  0  0  0
  -55.9967   63.7543  346.7168 N   0  0  0  0  0  0  0  0  0  0  0  0
  -56.4439   64.6138  345.8031 C   0  0  0  0  0  0  0  0  0  0  0  0
  -56.3587   66.0144  346.3311 C   0  0  0  0  0  0  0  0  0  0  0  0
  -55.7761   65.9141  347.5834 C   0  0  0  0  0  0  0  0  0  0  0  0
  -55.5532   64.4653  347.8622 C   0  0  0  0  0  0  0  0  0  0  0  0
  -56.7318   67.2215  345.5863 C   0  0  0  0  0  0  0  0  0  0  0  0
  -55.4536   66.9948  348.5336 C   0  0  0  0  0  0  0  0  0  0  0  0
  -56.7072   67.6625  349.0886 C   0  0  0  0  0  0  0  0  0  0  0  0
  -55.0286   61.5385  348.1812 N   0  0  0  0  0  0  0  0  0  0  0  0
  -54.7022   62.5123  349.1540 C   0  0  0  0  0  0  0  0  0  0  0  0
  -54.0424   61.8531  350.2553 C   0  0  0  0  0  0  0  0  0  0  0  0
  -53.8848   60.5027  349.8700 C   0  0  0  0  0  0  0  0  0  0  0  0
  -54.4630   60.3692  348.5528 C   0  0  0  0  0  0  0  0  0  0  0  0
  -53.5892   62.4466  351.5165 C   0  0  0  0  0  0  0  0  0  0  0  0
  -53.3284   59.2297  350.2759 C   0  0  0  0  0  0  0  0  0  0  0  0
  -52.7646   58.9201  351.3130 O   0  0  0  0  0  0  0  0  0  0  0  0
  -53.5338   58.2555  349.0721 C   0  0  2  0  0  0  0  0  0  0  0  0
  -52.1886   57.7762  348.5976 C   0  0  0  0  0  0  0  0  0  0  0  0
  -51.1966   58.4364  348.3105 O   0  0  0  0  0  0  0  0  0  0  0  0
  -52.1198   56.4040  348.4744 O   0  0  0  0  0  0  0  0  0  0  0  0
  -51.8860   55.9009  347.1647 C   0  0  0  0  0  0  0  0  0  0  0  0
  -59.3845   54.8061  347.9898 C   0  0  0  0  0  0  0  0  0  0  0  0
  -59.9257   54.6976  349.3707 C   0  0  0  0  0  0  0  0  0  0  0  0
  -60.6371   53.6239  349.7241 C   0  0  0  0  0  0  0  0  0  0  0  0
  -60.8689   52.5685  348.7223 C   0  0  0  0  0  0  0  0  0  0  0  0
  -61.2255   53.4215  351.0882 C   0  0  0  0  0  0  0  0  0  0  0  0
  -62.7474   53.5869  351.1828 C   0  0  0  0  0  0  0  0  0  0  0  0
  -63.1699   55.0044  350.8125 C   0  0  0  0  0  0  0  0  0  0  0  0
  -64.4771   55.0764  350.0290 C   0  0  2  0  0  0  0  0  0  0  0  0
  -64.6036   53.8819  349.1242 C   0  0  0  0  0  0  0  0  0  0  0  0
  -64.6201   56.3678  349.2214 C   0  0  0  0  0  0  0  0  0  0  0  0
  -63.3133   56.8263  348.5790 C   0  0  0  0  0  0  0  0  0  0  0  0
  -63.3649   56.9062  347.0583 C   0  0  0  0  0  0  0  0  0  0  0  0
  -63.4229   58.3484  346.5592 C   0  0  2  0  0  0  0  0  0  0  0  0
  -62.6721   59.3170  347.4695 C   0  0  0  0  0  0  0  0  0  0  0  0
  -64.8658   58.8024  346.4491 C   0  0  0  0  0  0  0  0  0  0  0  0
  -65.1992   59.4653  345.1281 C   0  0  0  0  0  0  0  0  0  0  0  0
  -64.2768   58.9222  344.0399 C   0  0  0  0  0  0  0  0  0  0  0  0
  -64.9140   59.0204  342.6604 C   0  0  2  0  0  0  0  0  0  0  0  0
  -64.2519   58.0525  341.7090 C   0  0  0  0  0  0  0  0  0  0  0  0
  -64.7466   60.4297  342.1492 C   0  0  0  0  0  0  0  0  0  0  0  0
  -56.0937   58.8609  342.6496 H   0  0  0  0  0  0  0  0  0  0  0  0
  -57.1826   65.1056  343.8270 H   0  0  0  0  0  0  0  0  0  0  0  0
  -54.6954   64.5785  349.7906 H   0  0  0  0  0  0  0  0  0  0  0  0
  -53.6956   56.7289  346.4675 H   0  0  0  0  0  0  0  0  0  0  0  0
  -55.5277   56.8054  344.2126 H   0  0  0  0  0  0  0  0  0  0  0  0
  -52.7153   57.2597  344.7148 H   0  0  0  0  0  0  0  0  0  0  0  0
  -53.5635   56.4538  343.3518 H   0  0  0  0  0  0  0  0  0  0  0  0
  -53.3568   58.2382  343.3518 H   0  0  0  0  0  0  0  0  0  0  0  0
  -55.6909   55.3902  346.2645 H   0  0  0  0  0  0  0  0  0  0  0  0
  -55.4542   56.1455  347.8738 H   0  0  0  0  0  0  0  0  0  0  0  0
  -56.9091   58.1000  346.6453 H   0  0  0  0  0  0  0  0  0  0  0  0
  -57.5466   56.6549  345.7905 H   0  0  0  0  0  0  0  0  0  0  0  0
  -55.9581   61.7041  345.3407 H   0  0  0  0  0  0  0  0  0  0  0  0
  -57.4710   59.5224  341.3463 H   0  0  0  0  0  0  0  0  0  0  0  0
  -58.0600   60.9587  340.4425 H   0  0  0  0  0  0  0  0  0  0  0  0
  -56.3101   60.5530  340.4425 H   0  0  0  0  0  0  0  0  0  0  0  0
  -58.7049   63.4958  341.0230 H   0  0  0  0  0  0  0  0  0  0  0  0
  -57.8343   65.7063  340.8416 H   0  0  0  0  0  0  0  0  0  0  0  0
  -56.4709   65.2960  342.1077 H   0  0  0  0  0  0  0  0  0  0  0  0
  -56.9806   68.0264  346.2936 H   0  0  0  0  0  0  0  0  0  0  0  0
  -55.8893   67.5370  344.9534 H   0  0  0  0  0  0  0  0  0  0  0  0
  -57.6054   67.0065  344.9534 H   0  0  0  0  0  0  0  0  0  0  0  0
  -54.8771   66.5719  349.3696 H   0  0  0  0  0  0  0  0  0  0  0  0
  -54.8731   67.7581  347.9947 H   0  0  0  0  0  0  0  0  0  0  0  0
  -56.6755   67.6456  350.1880 H   0  0  0  0  0  0  0  0  0  0  0  0
  -56.7529   68.7044  348.7390 H   0  0  0  0  0  0  0  0  0  0  0  0
  -57.5974   67.1190  348.7390 H   0  0  0  0  0  0  0  0  0  0  0  0
  -55.5980   61.6938  347.3371 H   0  0  0  0  0  0  0  0  0  0  0  0
  -54.0174   61.8858  352.3604 H   0  0  0  0  0  0  0  0  0  0  0  0
  -52.4912   62.4046  351.5679 H   0  0  0  0  0  0  0  0  0  0  0  0
  -53.9188   63.4948  351.5679 H   0  0  0  0  0  0  0  0  0  0  0  0
  -54.1073   57.3529  349.3300 H   0  0  0  0  0  0  0  0  0  0  0  0
  -51.4235   54.9052  347.2316 H   0  0  0  0  0  0  0  0  0  0  0  0
  -52.8415   55.8259  346.6248 H   0  0  0  0  0  0  0  0  0  0  0  0
  -51.2124   56.5827  346.6248 H   0  0  0  0  0  0  0  0  0  0  0  0
  -60.0114   55.4900  347.3988 H   0  0  0  0  0  0  0  0  0  0  0  0
  -59.3835   53.8173  347.5078 H   0  0  0  0  0  0  0  0  0  0  0  0
  -59.7404   55.5001  350.0997 H   0  0  0  0  0  0  0  0  0  0  0  0
  -61.0779   51.6172  349.2335 H   0  0  0  0  0  0  0  0  0  0  0  0
  -61.7282   52.8429  348.0927 H   0  0  0  0  0  0  0  0  0  0  0  0
  -59.9738   52.4576  348.0927 H   0  0  0  0  0  0  0  0  0  0  0  0
  -60.9743   52.4025  351.4176 H   0  0  0  0  0  0  0  0  0  0  0  0
  -60.7962   54.2114  351.7221 H   0  0  0  0  0  0  0  0  0  0  0  0
  -63.2294   52.8770  350.4945 H   0  0  0  0  0  0  0  0  0  0  0  0
  -63.0563   53.3901  352.2201 H   0  0  0  0  0  0  0  0  0  0  0  0
  -63.2901   55.5832  351.7402 H   0  0  0  0  0  0  0  0  0  0  0  0
  -62.3839   55.4108  350.1592 H   0  0  0  0  0  0  0  0  0  0  0  0
  -65.2919   55.0733  350.7680 H   0  0  0  0  0  0  0  0  0  0  0  0
  -64.7002   52.9701  349.7320 H   0  0  0  0  0  0  0  0  0  0  0  0
  -65.4948   53.9955  348.4894 H   0  0  0  0  0  0  0  0  0  0  0  0
  -63.7085   53.8062  348.4894 H   0  0  0  0  0  0  0  0  0  0  0  0
  -65.3609   56.2016  348.4255 H   0  0  0  0  0  0  0  0  0  0  0  0
  -64.9334   57.1566  349.9212 H   0  0  0  0  0  0  0  0  0  0  0  0
  -63.0675   57.8248  348.9697 H   0  0  0  0  0  0  0  0  0  0  0  0
  -62.5526   56.0733  348.8325 H   0  0  0  0  0  0  0  0  0  0  0  0
  -62.4652   56.4249  346.6473 H   0  0  0  0  0  0  0  0  0  0  0  0
  -64.2798   56.3954  346.7236 H   0  0  0  0  0  0  0  0  0  0  0  0
  -62.9345   58.3605  345.5737 H   0  0  0  0  0  0  0  0  0  0  0  0
  -62.8706   59.0609  348.5206 H   0  0  0  0  0  0  0  0  0  0  0  0
  -61.5925   59.2438  347.2718 H   0  0  0  0  0  0  0  0  0  0  0  0
  -63.0122   60.3443  347.2718 H   0  0  0  0  0  0  0  0  0  0  0  0
  -65.5161   57.9235  346.5700 H   0  0  0  0  0  0  0  0  0  0  0  0
  -65.0254   59.5556  347.2347 H   0  0  0  0  0  0  0  0  0  0  0  0
  -66.2450   59.2501  344.8635 H   0  0  0  0  0  0  0  0  0  0  0  0
  -65.0603   60.5527  345.2179 H   0  0  0  0  0  0  0  0  0  0  0  0
  -63.3421   59.5021  344.0428 H   0  0  0  0  0  0  0  0  0  0  0  0
  -64.0830   57.8606  344.2532 H   0  0  0  0  0  0  0  0  0  0  0  0
  -65.9824   58.7678  342.7298 H   0  0  0  0  0  0  0  0  0  0  0  0
  -63.7222   57.2782  342.2833 H   0  0  0  0  0  0  0  0  0  0  0  0
  -65.0169   57.5800  341.0753 H   0  0  0  0  0  0  0  0  0  0  0  0
  -63.5343   58.5942  341.0753 H   0  0  0  0  0  0  0  0  0  0  0  0
  -64.6645   61.1213  343.0007 H   0  0  0  0  0  0  0  0  0  0  0  0
  -63.8348   60.4919  341.5371 H   0  0  0  0  0  0  0  0  0  0  0  0
  -65.6185   60.7038  341.5371 H   0  0  0  0  0  0  0  0  0  0  0  0
  1  6  1  0
  1 36  2  0
  1 40  1  0
  2  9  2  0
  2 17  1  0
  3 20  1  0
  3 25  2  0
  4 28  1  0
  4 33  2  0
  5  6  2  0
  5  9  1  0
  6  7  1  0
  7  8  1  0
  7 11  1  0
  8  9  1  0
  8 10  1  0
 11 12  1  0
 12 13  1  0
 13 14  2  0
 13 15  1  0
 15 45  1  0
 16 17  1  0
 16 20  1  0
 17 18  2  0
 18 19  1  0
 18 21  1  0
 19 20  2  0
 19 22  1  0
 22 23  2  0
 24 25  1  0
 24 28  2  0
 25 26  1  0
 26 27  2  0
 26 29  1  0
 27 28  1  0
 27 30  1  0
 30 31  1  0
 32 33  1  0
 32 36  1  0
 33 34  1  0
 34 35  2  0
 34 37  1  0
 35 36  1  0
 35 38  1  0
 38 39  2  0
 38 40  1  0
 40 41  1  0
 41 42  2  0
 41 43  1  0
 43 44  1  0
 45 46  1  0
 46 47  2  3
 47 48  1  0
 47 49  1  0
 49 50  1  0
 50 51  1  0
 51 52  1  0
 52 53  1  0
 52 54  1  0
 54 55  1  0
 55 56  1  0
 56 57  1  0
 57 58  1  0
 57 59  1  0
 59 60  1  0
 60 61  1  0
 61 62  1  0
 62 63  1  0
 62 64  1  0
  2 65  1  0
  3 66  1  0
  4 67  1  0
  7 68  1  6
  8 69  1  6
 10 70  1  0
 10 71  1  0
 10 72  1  0
 11 73  1  0
 11 74  1  0
 12 75  1  0
 12 76  1  0
 16 77  1  0
 21 78  1  0
 21 79  1  0
 21 80  1  0
 22 81  1  0
 23 82  1  0
 23 83  1  0
 29 84  1  0
 29 85  1  0
 29 86  1  0
 30 87  1  0
 30 88  1  0
 31 89  1  0
 31 90  1  0
 31 91  1  0
 32 92  1  0
 37 93  1  0
 37 94  1  0
 37 95  1  0
 40 96  1  1
 44 97  1  0
 44 98  1  0
 44 99  1  0
 45100  1  0
 45101  1  0
 46102  1  0
 48103  1  0
 48104  1  0
 48105  1  0
 49106  1  0
 49107  1  0
 50108  1  0
 50109  1  0
 51110  1  0
 51111  1  0
 52112  1  1
 53113  1  0
 53114  1  0
 53115  1  0
 54116  1  0
 54117  1  0
 55118  1  0
 55119  1  0
 56120  1  0
 56121  1  0
 57122  1  6
 58123  1  0
 58124  1  0
 58125  1  0
 59126  1  0
 59127  1  0
 60128  1  0
 60129  1  0
 61130  1  0
 61131  1  0
 62132  1  1
 63133  1  0
 63134  1  0
 63135  1  0
 64136  1  0
 64137  1  0
 64138  1  0
M  END
>  <filename_input>  (10) 
8F4J_PHO_docked.sdf

>  <pdb_id>  (10) 
8F4J_PHO

>  <pose_rank>  (10) 
9

>  <num_atoms_heavy>  (10) 
64

>  <num_torsions>  (10) 
22

>  <pose>  (10) 
[-54.292977714292626, 59.046719511044074, 348.0227211158208, -2.8699963217683897, -0.8515637937680339, 1.0491686441629489, -2.768973267136148, -0.7278084899147501, -2.425426612591606, -0.9681145303293616, -2.12784923266904, 0.5270429451014728, 1.8594116601569926, 0.8194255289837745, 3.210162153723182, -0.017256139880850497, -2.428561596796885, 1.807186607822626, -0.9771982254289294, 0.41632695712382545, 1.7582071504537398, 3.2475309807285844, -1.3987575604404743, 1.825961168971556, -0.9769033793751031, 3.5513397217974254, -0.32256774681698225, 0.3893410887541919]

>  <energy>  (10) 
-494.58895881926236

>  <inter_energy>  (10) 
-544.8615331907295

>  <intra_energy>  (10) 
48.817937993688645

>  <rmsd>  (10) 
11.2234

>  <sdf_rank>  (10) 
0

$$$$

     RDKit          3D

138143  0  0  0  0  0  0  0  0999 V2000
  -55.1968   61.5357  348.7364 C   0  0  0  0  0  0  0  0  0  0  0  0
  -52.9331   57.3606  347.9292 C   0  0  0  0  0  0  0  0  0  0  0  0
  -54.7922   57.3571  343.3629 C   0  0  0  0  0  0  0  0  0  0  0  0
  -56.9536   61.6950  344.0662 C   0  0  0  0  0  0  0  0  0  0  0  0
  -54.1171   59.4879  348.0277 N   0  0  0  0  0  0  0  0  0  0  0  0
  -54.4705   60.4406  349.0231 C   0  0  0  0  0  0  0  0  0  0  0  0
  -53.8395   60.0931  350.3529 C   0  0  2  0  0  0  0  0  0  0  0  0
  -52.8526   58.9529  349.9617 C   0  0  1  0  0  0  0  0  0  0  0  0
  -53.3403   58.5723  348.5641 C   0  0  0  0  0  0  0  0  0  0  0  0
  -51.4457   59.4782  349.9453 C   0  0  0  0  0  0  0  0  0  0  0  0
  -54.8438   59.6598  351.3930 C   0  0  0  0  0  0  0  0  0  0  0  0
  -55.1133   60.8182  352.3351 C   0  0  0  0  0  0  0  0  0  0  0  0
  -56.4042   60.5868  353.0503 C   0  0  0  0  0  0  0  0  0  0  0  0
  -57.0241   59.5277  353.1720 O   0  0  0  0  0  0  0  0  0  0  0  0
  -56.9219   61.7230  353.5986 O   0  0  0  0  0  0  0  0  0  0  0  0
  -54.1067   57.6673  345.7516 N   0  0  0  0  0  0  0  0  0  0  0  0
  -53.3033   56.9872  346.6729 C   0  0  0  0  0  0  0  0  0  0  0  0
  -52.8825   55.7242  346.0173 C   0  0  0  0  0  0  0  0  0  0  0  0
  -53.3950   55.7118  344.7327 C   0  0  0  0  0  0  0  0  0  0  0  0
  -54.1961   56.9635  344.5289 C   0  0  0  0  0  0  0  0  0  0  0  0
  -52.0048   54.7966  346.7289 C   0  0  0  0  0  0  0  0  0  0  0  0
  -53.2287   54.7693  343.6572 C   0  0  0  0  0  0  0  0  0  0  0  0
  -52.5053   53.6531  343.7065 C   0  0  0  0  0  0  0  0  0  0  0  0
  -55.8918   59.4549  344.0506 N   0  0  0  0  0  0  0  0  0  0  0  0
  -55.5964   58.5340  343.1350 C   0  0  0  0  0  0  0  0  0  0  0  0
  -56.1141   58.9595  341.7939 C   0  0  0  0  0  0  0  0  0  0  0  0
  -56.6722   60.2129  341.9817 C   0  0  0  0  0  0  0  0  0  0  0  0
  -56.5594   60.5440  343.4322 C   0  0  0  0  0  0  0  0  0  0  0  0
  -55.9418   58.2091  340.5456 C   0  0  0  0  0  0  0  0  0  0  0  0
  -57.3162   61.0883  340.9848 C   0  0  0  0  0  0  0  0  0  0  0  0
  -56.3353   61.5579  339.9160 C   0  0  0  0  0  0  0  0  0  0  0  0
  -56.0993   61.1111  346.3322 N   0  0  0  0  0  0  0  0  0  0  0  0
  -56.7446   62.0026  345.4434 C   0  0  0  0  0  0  0  0  0  0  0  0
  -57.0696   63.2097  346.1648 C   0  0  0  0  0  0  0  0  0  0  0  0
  -56.5096   63.0622  347.4537 C   0  0  0  0  0  0  0  0  0  0  0  0
  -55.8706   61.7671  347.4909 C   0  0  0  0  0  0  0  0  0  0  0  0
  -57.8038   64.3795  345.6742 C   0  0  0  0  0  0  0  0  0  0  0  0
  -56.2999   63.7319  348.7196 C   0  0  0  0  0  0  0  0  0  0  0  0
  -56.6816   64.8289  349.0942 O   0  0  0  0  0  0  0  0  0  0  0  0
  -55.4022   62.7831  349.5764 C   0  0  2  0  0  0  0  0  0  0  0  0
  -54.1184   63.4945  349.9085 C   0  0  0  0  0  0  0  0  0  0  0  0
  -53.5870   63.6474  351.0024 O   0  0  0  0  0  0  0  0  0  0  0  0
  -53.5041   64.0399  348.8004 O   0  0  0  0  0  0  0  0  0  0  0  0
  -53.0274   65.3729  348.9377 C   0  0  0  0  0  0  0  0  0  0  0  0
  -58.3589   61.7839  353.7724 C   0  0  0  0  0  0  0  0  0  0  0  0
  -58.6504   62.2895  355.1402 C   0  0  0  0  0  0  0  0  0  0  0  0
  -59.9116   62.3371  355.5772 C   0  0  0  0  0  0  0  0  0  0  0  0
  -60.9884   61.8843  354.6791 C   0  0  0  0  0  0  0  0  0  0  0  0
  -60.3085   62.8304  356.9362 C   0  0  0  0  0  0  0  0  0  0  0  0
  -59.1488   63.1664  357.8822 C   0  0  0  0  0  0  0  0  0  0  0  0
  -58.5158   64.5058  357.5210 C   0  0  0  0  0  0  0  0  0  0  0  0
  -59.2891   65.7156  358.0372 C   0  0  2  0  0  0  0  0  0  0  0  0
  -60.1282   65.3251  359.2224 C   0  0  0  0  0  0  0  0  0  0  0  0
  -60.1622   66.3695  356.9646 C   0  0  0  0  0  0  0  0  0  0  0  0
  -59.5922   66.2318  355.5551 C   0  0  0  0  0  0  0  0  0  0  0  0
  -60.5930   65.7130  354.5299 C   0  0  0  0  0  0  0  0  0  0  0  0
  -60.6733   66.6118  353.2978 C   0  0  2  0  0  0  0  0  0  0  0  0
  -61.0265   68.0559  353.6447 C   0  0  0  0  0  0  0  0  0  0  0  0
  -61.7107   66.0755  352.3302 C   0  0  0  0  0  0  0  0  0  0  0  0
  -62.0176   67.0135  351.1807 C   0  0  0  0  0  0  0  0  0  0  0  0
  -61.5787   66.3696  349.8682 C   0  0  0  0  0  0  0  0  0  0  0  0
  -61.0018   67.3957  348.9023 C   0  0  2  0  0  0  0  0  0  0  0  0
  -59.5629   67.0644  348.5861 C   0  0  0  0  0  0  0  0  0  0  0  0
  -61.0802   68.7598  349.5417 C   0  0  0  0  0  0  0  0  0  0  0  0
  -52.2757   56.6823  348.4929 H   0  0  0  0  0  0  0  0  0  0  0  0
  -54.6409   56.6983  342.4951 H   0  0  0  0  0  0  0  0  0  0  0  0
  -57.4774   62.4476  343.4586 H   0  0  0  0  0  0  0  0  0  0  0  0
  -53.3501   60.9530  350.8336 H   0  0  0  0  0  0  0  0  0  0  0  0
  -52.8364   58.0981  350.6538 H   0  0  0  0  0  0  0  0  0  0  0  0
  -51.0916   59.6104  350.9784 H   0  0  0  0  0  0  0  0  0  0  0  0
  -50.7933   58.7630  349.4228 H   0  0  0  0  0  0  0  0  0  0  0  0
  -51.4216   60.4459  349.4228 H   0  0  0  0  0  0  0  0  0  0  0  0
  -55.7801   59.3611  350.8991 H   0  0  0  0  0  0  0  0  0  0  0  0
  -54.4452   58.8057  351.9601 H   0  0  0  0  0  0  0  0  0  0  0  0
  -54.2962   60.8930  353.0678 H   0  0  0  0  0  0  0  0  0  0  0  0
  -55.1752   61.7533  351.7590 H   0  0  0  0  0  0  0  0  0  0  0  0
  -54.5734   58.5660  345.9401 H   0  0  0  0  0  0  0  0  0  0  0  0
  -52.1317   54.9307  347.8133 H   0  0  0  0  0  0  0  0  0  0  0  0
  -52.2636   53.7633  346.4545 H   0  0  0  0  0  0  0  0  0  0  0  0
  -50.9588   54.9979  346.4545 H   0  0  0  0  0  0  0  0  0  0  0  0
  -53.7449   54.9912  342.7115 H   0  0  0  0  0  0  0  0  0  0  0  0
  -52.4434   52.9985  342.8246 H   0  0  0  0  0  0  0  0  0  0  0  0
  -51.9694   53.3853  344.6290 H   0  0  0  0  0  0  0  0  0  0  0  0
  -55.7011   57.1612  340.7779 H   0  0  0  0  0  0  0  0  0  0  0  0
  -56.8728   58.2506  339.9613 H   0  0  0  0  0  0  0  0  0  0  0  0
  -55.1221   58.6527  339.9613 H   0  0  0  0  0  0  0  0  0  0  0  0
  -58.1315   60.5325  340.4986 H   0  0  0  0  0  0  0  0  0  0  0  0
  -57.6970   61.9769  341.5096 H   0  0  0  0  0  0  0  0  0  0  0  0
  -55.4437   61.9846  340.3987 H   0  0  0  0  0  0  0  0  0  0  0  0
  -56.0394   60.7037  339.2892 H   0  0  0  0  0  0  0  0  0  0  0  0
  -56.8150   62.3240  339.2892 H   0  0  0  0  0  0  0  0  0  0  0  0
  -55.8477   60.1328  346.1310 H   0  0  0  0  0  0  0  0  0  0  0  0
  -58.1721   64.9661  346.5288 H   0  0  0  0  0  0  0  0  0  0  0  0
  -57.1346   65.0026  345.0629 H   0  0  0  0  0  0  0  0  0  0  0  0
  -58.6560   64.0477  345.0629 H   0  0  0  0  0  0  0  0  0  0  0  0
  -55.8541   62.5009  350.5388 H   0  0  0  0  0  0  0  0  0  0  0  0
  -52.9382   65.6223  350.0053 H   0  0  0  0  0  0  0  0  0  0  0  0
  -52.0420   65.4612  348.4569 H   0  0  0  0  0  0  0  0  0  0  0  0
  -53.7333   66.0661  348.4569 H   0  0  0  0  0  0  0  0  0  0  0  0
  -58.7940   62.4641  353.0253 H   0  0  0  0  0  0  0  0  0  0  0  0
  -58.7961   60.7832  353.6405 H   0  0  0  0  0  0  0  0  0  0  0  0
  -57.8289   62.6237  355.7908 H   0  0  0  0  0  0  0  0  0  0  0  0
  -61.8391   61.5266  355.2777 H   0  0  0  0  0  0  0  0  0  0  0  0
  -61.3132   62.7221  354.0445 H   0  0  0  0  0  0  0  0  0  0  0  0
  -60.6169   61.0662  354.0445 H   0  0  0  0  0  0  0  0  0  0  0  0
  -60.9118   63.7405  356.8034 H   0  0  0  0  0  0  0  0  0  0  0  0
  -60.8542   62.0014  357.4105 H   0  0  0  0  0  0  0  0  0  0  0  0
  -59.5288   63.2151  358.9133 H   0  0  0  0  0  0  0  0  0  0  0  0
  -58.3833   62.3819  357.7888 H   0  0  0  0  0  0  0  0  0  0  0  0
  -57.5021   64.5356  357.9469 H   0  0  0  0  0  0  0  0  0  0  0  0
  -58.5156   64.5724  356.4230 H   0  0  0  0  0  0  0  0  0  0  0  0
  -58.5428   66.4654  358.3385 H   0  0  0  0  0  0  0  0  0  0  0  0
  -59.5917   65.5747  360.1497 H   0  0  0  0  0  0  0  0  0  0  0  0
  -61.0823   65.8719  359.1923 H   0  0  0  0  0  0  0  0  0  0  0  0
  -60.3246   64.2432  359.1923 H   0  0  0  0  0  0  0  0  0  0  0  0
  -61.1554   65.8973  356.9873 H   0  0  0  0  0  0  0  0  0  0  0  0
  -60.2089   67.4445  357.1935 H   0  0  0  0  0  0  0  0  0  0  0  0
  -59.2410   67.2209  355.2258 H   0  0  0  0  0  0  0  0  0  0  0  0
  -58.7808   65.4912  355.6108 H   0  0  0  0  0  0  0  0  0  0  0  0
  -60.2864   64.7049  354.2139 H   0  0  0  0  0  0  0  0  0  0  0  0
  -61.5857   65.6988  355.0035 H   0  0  0  0  0  0  0  0  0  0  0  0
  -59.6736   66.6073  352.8390 H   0  0  0  0  0  0  0  0  0  0  0  0
  -61.0553   68.1739  354.7379 H   0  0  0  0  0  0  0  0  0  0  0  0
  -60.2668   68.7305  353.2230 H   0  0  0  0  0  0  0  0  0  0  0  0
  -62.0117   68.3039  353.2230 H   0  0  0  0  0  0  0  0  0  0  0  0
  -61.3395   65.1272  351.9143 H   0  0  0  0  0  0  0  0  0  0  0  0
  -62.6440   65.9494  352.8986 H   0  0  0  0  0  0  0  0  0  0  0  0
  -63.0990   67.2122  351.1482 H   0  0  0  0  0  0  0  0  0  0  0  0
  -61.4754   67.9598  351.3245 H   0  0  0  0  0  0  0  0  0  0  0  0
  -60.8115   65.6110  350.0824 H   0  0  0  0  0  0  0  0  0  0  0  0
  -62.4626   65.9146  349.3973 H   0  0  0  0  0  0  0  0  0  0  0  0
  -61.5781   67.3836  347.9654 H   0  0  0  0  0  0  0  0  0  0  0  0
  -59.0019   66.9352  349.5235 H   0  0  0  0  0  0  0  0  0  0  0  0
  -59.5208   66.1331  348.0023 H   0  0  0  0  0  0  0  0  0  0  0  0
  -59.1177   67.8835  348.0023 H   0  0  0  0  0  0  0  0  0  0  0  0
  -61.0741   68.6525  350.6364 H   0  0  0  0  0  0  0  0  0  0  0  0
  -60.2153   69.3623  349.2274 H   0  0  0  0  0  0  0  0  0  0  0  0
  -62.0086   69.2592  349.2274 H   0  0  0  0  0  0  0  0  0  0  0  0
  1  6  1  0
  1 36  2  0
  1 40  1  0
  2  9  2  0
  2 17  1  0
  3 20  1  0
  3 25  2  0
  4 28  1  0
  4 33  2  0
  5  6  2  0
  5  9  1  0
  6  7  1  0
  7  8  1  0
  7 11  1  0
  8  9  1  0
  8 10  1  0
 11 12  1  0
 12 13  1  0
 13 14  2  0
 13 15  1  0
 15 45  1  0
 16 17  1  0
 16 20  1  0
 17 18  2  0
 18 19  1  0
 18 21  1  0
 19 20  2  0
 19 22  1  0
 22 23  2  0
 24 25  1  0
 24 28  2  0
 25 26  1  0
 26 27  2  0
 26 29  1  0
 27 28  1  0
 27 30  1  0
 30 31  1  0
 32 33  1  0
 32 36  1  0
 33 34  1  0
 34 35  2  0
 34 37  1  0
 35 36  1  0
 35 38  1  0
 38 39  2  0
 38 40  1  0
 40 41  1  0
 41 42  2  0
 41 43  1  0
 43 44  1  0
 45 46  1  0
 46 47  2  3
 47 48  1  0
 47 49  1  0
 49 50  1  0
 50 51  1  0
 51 52  1  0
 52 53  1  0
 52 54  1  0
 54 55  1  0
 55 56  1  0
 56 57  1  0
 57 58  1  0
 57 59  1  0
 59 60  1  0
 60 61  1  0
 61 62  1  0
 62 63  1  0
 62 64  1  0
  2 65  1  0
  3 66  1  0
  4 67  1  0
  7 68  1  1
  8 69  1  1
 10 70  1  0
 10 71  1  0
 10 72  1  0
 11 73  1  0
 11 74  1  0
 12 75  1  0
 12 76  1  0
 16 77  1  0
 21 78  1  0
 21 79  1  0
 21 80  1  0
 22 81  1  0
 23 82  1  0
 23 83  1  0
 29 84  1  0
 29 85  1  0
 29 86  1  0
 30 87  1  0
 30 88  1  0
 31 89  1  0
 31 90  1  0
 31 91  1  0
 32 92  1  0
 37 93  1  0
 37 94  1  0
 37 95  1  0
 40 96  1  1
 44 97  1  0
 44 98  1  0
 44 99  1  0
 45100  1  0
 45101  1  0
 46102  1  0
 48103  1  0
 48104  1  0
 48105  1  0
 49106  1  0
 49107  1  0
 50108  1  0
 50109  1  0
 51110  1  0
 51111  1  0
 52112  1  1
 53113  1  0
 53114  1  0
 53115  1  0
 54116  1  0
 54117  1  0
 55118  1  0
 55119  1  0
 56120  1  0
 56121  1  0
 57122  1  6
 58123  1  0
 58124  1  0
 58125  1  0
 59126  1  0
 59127  1  0
 60128  1  0
 60129  1  0
 61130  1  0
 61131  1  0
 62132  1  6
 63133  1  0
 63134  1  0
 63135  1  0
 64136  1  0
 64137  1  0
 64138  1  0
M  END
>  <filename_input>  (11) 
8F4J_PHO_docked.sdf

>  <pdb_id>  (11) 
8F4J_PHO

>  <pose_rank>  (11) 
10

>  <num_atoms_heavy>  (11) 
64

>  <num_torsions>  (11) 
22

>  <pose>  (11) 
[-55.19675233602315, 61.53571961181465, 348.7364165688764, -4.277001230364524, -1.9829836637964648, 1.0697281939515946, -0.3961326156258082, -3.0307521979204743, 0.7083398796021474, -0.667760690312249, 1.4855414621301075, -0.43172992921396763, 0.04923024379247408, -0.7424188516421977, 0.9283535922962812, -0.6588409826149582, 1.8895757747609847, -2.048716354098703, -2.0686417027738706, 1.4295956959020626, 0.5457698467031165, 3.431695318107058, 5.262695699983413, 0.2747984741623648, -1.9835314518005798, -1.2049421301777896, 0.780019971020809, -1.045918162148341]

>  <energy>  (11) 
-484.49360571023027

>  <inter_energy>  (11) 
-523.7734179853452

>  <intra_energy>  (11) 
37.53554777816913

>  <rmsd>  (11) 
6.98647

>  <sdf_rank>  (11) 
0

$$$$

     RDKit          3D

138143  0  0  0  0  0  0  0  0999 V2000
  -55.4652   64.4327  346.7373 C   0  0  0  0  0  0  0  0  0  0  0  0
  -53.7660   60.2860  348.5050 C   0  0  0  0  0  0  0  0  0  0  0  0
  -55.3480   58.0197  344.4223 C   0  0  0  0  0  0  0  0  0  0  0  0
  -56.9175   62.2392  342.4945 C   0  0  0  0  0  0  0  0  0  0  0  0
  -54.6444   62.2352  347.3363 N   0  0  0  0  0  0  0  0  0  0  0  0
  -54.9165   63.5983  347.6382 C   0  0  0  0  0  0  0  0  0  0  0  0
  -54.4159   63.9569  349.0196 C   0  0  2  0  0  0  0  0  0  0  0  0
  -53.5778   62.7008  349.4029 C   0  0  1  0  0  0  0  0  0  0  0  0
  -54.0347   61.6803  348.3609 C   0  0  0  0  0  0  0  0  0  0  0  0
  -52.1126   63.0093  349.2867 C   0  0  0  0  0  0  0  0  0  0  0  0
  -55.5277   64.2345  350.0019 C   0  0  0  0  0  0  0  0  0  0  0  0
  -55.2699   65.5675  350.6791 C   0  0  0  0  0  0  0  0  0  0  0  0
  -54.3651   65.3632  351.8500 C   0  0  0  0  0  0  0  0  0  0  0  0
  -53.8169   64.3192  352.2112 O   0  0  0  0  0  0  0  0  0  0  0  0
  -54.1740   66.4980  352.5815 O   0  0  0  0  0  0  0  0  0  0  0  0
  -54.7610   59.4905  346.3626 N   0  0  0  0  0  0  0  0  0  0  0  0
  -54.1137   59.3363  347.5930 C   0  0  0  0  0  0  0  0  0  0  0  0
  -53.8374   57.8865  347.7479 C   0  0  0  0  0  0  0  0  0  0  0  0
  -54.2738   57.2384  346.6066 C   0  0  0  0  0  0  0  0  0  0  0  0
  -54.8792   58.2554  345.6850 C   0  0  0  0  0  0  0  0  0  0  0  0
  -53.1395   57.4058  348.9391 C   0  0  0  0  0  0  0  0  0  0  0  0
  -54.1808   55.8579  346.2089 C   0  0  0  0  0  0  0  0  0  0  0  0
  -53.1821   55.3136  345.5175 C   0  0  0  0  0  0  0  0  0  0  0  0
  -56.1803   60.2499  343.7771 N   0  0  0  0  0  0  0  0  0  0  0  0
  -55.9656   58.9612  343.5190 C   0  0  0  0  0  0  0  0  0  0  0  0
  -56.3426   58.6523  342.1012 C   0  0  0  0  0  0  0  0  0  0  0  0
  -56.7295   59.8573  341.5392 C   0  0  0  0  0  0  0  0  0  0  0  0
  -56.6532   60.8975  342.6061 C   0  0  0  0  0  0  0  0  0  0  0  0
  -56.2071   57.3410  341.4582 C   0  0  0  0  0  0  0  0  0  0  0  0
  -57.1879   60.1216  340.1627 C   0  0  0  0  0  0  0  0  0  0  0  0
  -58.1553   61.2984  340.0971 C   0  0  0  0  0  0  0  0  0  0  0  0
  -56.2818   62.8766  344.8172 N   0  0  0  0  0  0  0  0  0  0  0  0
  -56.7452   63.2121  343.5234 C   0  0  0  0  0  0  0  0  0  0  0  0
  -56.9382   64.6412  343.4647 C   0  0  0  0  0  0  0  0  0  0  0  0
  -56.4775   65.1527  344.6988 C   0  0  0  0  0  0  0  0  0  0  0  0
  -56.0291   64.0251  345.4824 C   0  0  0  0  0  0  0  0  0  0  0  0
  -57.4729   65.4307  342.3516 C   0  0  0  0  0  0  0  0  0  0  0  0
  -56.2476   66.3714  345.4451 C   0  0  0  0  0  0  0  0  0  0  0  0
  -56.4926   67.5284  345.1438 O   0  0  0  0  0  0  0  0  0  0  0  0
  -55.5410   65.9482  346.7725 C   0  0  2  0  0  0  0  0  0  0  0  0
  -54.1911   66.6098  346.8387 C   0  0  0  0  0  0  0  0  0  0  0  0
  -53.5664   66.9810  347.8258 O   0  0  0  0  0  0  0  0  0  0  0  0
  -53.6311   66.8142  345.5948 O   0  0  0  0  0  0  0  0  0  0  0  0
  -52.3924   66.1604  345.3473 C   0  0  0  0  0  0  0  0  0  0  0  0
  -54.3017   67.7651  351.8908 C   0  0  0  0  0  0  0  0  0  0  0  0
  -54.3040   68.8575  352.8998 C   0  0  0  0  0  0  0  0  0  0  0  0
  -53.8896   70.0802  352.5577 C   0  0  0  0  0  0  0  0  0  0  0  0
  -53.4351   70.3114  351.1753 C   0  0  0  0  0  0  0  0  0  0  0  0
  -53.8527   71.2457  353.5002 C   0  0  0  0  0  0  0  0  0  0  0  0
  -54.6072   71.0516  354.8214 C   0  0  0  0  0  0  0  0  0  0  0  0
  -56.1045   70.8936  354.5807 C   0  0  0  0  0  0  0  0  0  0  0  0
  -56.8163   72.1967  354.2298 C   0  0  2  0  0  0  0  0  0  0  0  0
  -56.2886   73.3190  355.0803 C   0  0  0  0  0  0  0  0  0  0  0  0
  -58.3373   72.1025  354.3645 C   0  0  0  0  0  0  0  0  0  0  0  0
  -58.9379   70.9164  353.6141 C   0  0  0  0  0  0  0  0  0  0  0  0
  -59.1021   69.6634  354.4654 C   0  0  0  0  0  0  0  0  0  0  0  0
  -60.3196   68.8405  354.0498 C   0  0  2  0  0  0  0  0  0  0  0  0
  -60.1875   67.3654  354.4203 C   0  0  0  0  0  0  0  0  0  0  0  0
  -60.5339   68.9494  352.5524 C   0  0  0  0  0  0  0  0  0  0  0  0
  -60.7877   67.6195  351.8725 C   0  0  0  0  0  0  0  0  0  0  0  0
  -60.7328   67.8041  350.3583 C   0  0  0  0  0  0  0  0  0  0  0  0
  -61.3347   66.6141  349.6233 C   0  0  2  0  0  0  0  0  0  0  0  0
  -62.4341   65.9911  350.4500 C   0  0  0  0  0  0  0  0  0  0  0  0
  -60.2476   65.5980  349.3756 C   0  0  0  0  0  0  0  0  0  0  0  0
  -53.2426   59.9561  349.4145 H   0  0  0  0  0  0  0  0  0  0  0  0
  -55.2418   56.9899  344.0505 H   0  0  0  0  0  0  0  0  0  0  0  0
  -57.2959   62.5964  341.5254 H   0  0  0  0  0  0  0  0  0  0  0  0
  -53.8389   64.8932  349.0375 H   0  0  0  0  0  0  0  0  0  0  0  0
  -53.7202   62.3476  350.4349 H   0  0  0  0  0  0  0  0  0  0  0  0
  -51.6763   63.1012  350.2923 H   0  0  0  0  0  0  0  0  0  0  0  0
  -51.6090   62.1975  348.7414 H   0  0  0  0  0  0  0  0  0  0  0  0
  -51.9792   63.9553  348.7414 H   0  0  0  0  0  0  0  0  0  0  0  0
  -56.4893   64.2718  349.4691 H   0  0  0  0  0  0  0  0  0  0  0  0
  -55.5631   63.4356  350.7573 H   0  0  0  0  0  0  0  0  0  0  0  0
  -54.7955   66.2563  349.9646 H   0  0  0  0  0  0  0  0  0  0  0  0
  -56.2234   65.9955  351.0222 H   0  0  0  0  0  0  0  0  0  0  0  0
  -55.1073   60.3890  345.9970 H   0  0  0  0  0  0  0  0  0  0  0  0
  -53.6604   57.7646  349.8391 H   0  0  0  0  0  0  0  0  0  0  0  0
  -53.1259   56.3059  348.9373 H   0  0  0  0  0  0  0  0  0  0  0  0
  -52.1070   57.7853  348.9373 H   0  0  0  0  0  0  0  0  0  0  0  0
  -55.0078   55.1946  346.5022 H   0  0  0  0  0  0  0  0  0  0  0  0
  -53.2080   54.2436  345.2637 H   0  0  0  0  0  0  0  0  0  0  0  0
  -52.3309   55.9337  345.2000 H   0  0  0  0  0  0  0  0  0  0  0  0
  -56.1265   56.5610  342.2295 H   0  0  0  0  0  0  0  0  0  0  0  0
  -57.0900   57.1470  340.8314 H   0  0  0  0  0  0  0  0  0  0  0  0
  -55.3032   57.3317  340.8314 H   0  0  0  0  0  0  0  0  0  0  0  0
  -56.3132   60.3458  339.5343 H   0  0  0  0  0  0  0  0  0  0  0  0
  -57.7176   59.2267  339.8040 H   0  0  0  0  0  0  0  0  0  0  0  0
  -58.4163   61.6159  341.1174 H   0  0  0  0  0  0  0  0  0  0  0  0
  -57.6800   62.1345  339.5632 H   0  0  0  0  0  0  0  0  0  0  0  0
  -59.0676   60.9938  339.5632 H   0  0  0  0  0  0  0  0  0  0  0  0
  -56.1587   61.9234  345.1873 H   0  0  0  0  0  0  0  0  0  0  0  0
  -58.0483   66.2804  342.7479 H   0  0  0  0  0  0  0  0  0  0  0  0
  -56.6422   65.8058  341.7358 H   0  0  0  0  0  0  0  0  0  0  0  0
  -58.1295   64.7986  341.7358 H   0  0  0  0  0  0  0  0  0  0  0  0
  -56.0812   66.2626  347.6776 H   0  0  0  0  0  0  0  0  0  0  0  0
  -51.9135   65.9077  346.3048 H   0  0  0  0  0  0  0  0  0  0  0  0
  -52.5721   65.2397  344.7729 H   0  0  0  0  0  0  0  0  0  0  0  0
  -51.7336   66.8283  344.7729 H   0  0  0  0  0  0  0  0  0  0  0  0
  -53.4545   67.8987  351.2020 H   0  0  0  0  0  0  0  0  0  0  0  0
  -55.2374   67.7854  351.3129 H   0  0  0  0  0  0  0  0  0  0  0  0
  -54.6463   68.6588  353.9262 H   0  0  0  0  0  0  0  0  0  0  0  0
  -52.4547   70.8101  351.1902 H   0  0  0  0  0  0  0  0  0  0  0  0
  -53.3484   69.3479  350.6518 H   0  0  0  0  0  0  0  0  0  0  0  0
  -54.1628   70.9489  350.6518 H   0  0  0  0  0  0  0  0  0  0  0  0
  -52.7995   71.4549  353.7391 H   0  0  0  0  0  0  0  0  0  0  0  0
  -54.3621   72.0704  352.9802 H   0  0  0  0  0  0  0  0  0  0  0  0
  -54.2269   70.1495  355.3231 H   0  0  0  0  0  0  0  0  0  0  0  0
  -54.4462   71.9402  355.4494 H   0  0  0  0  0  0  0  0  0  0  0  0
  -56.2489   70.1860  353.7510 H   0  0  0  0  0  0  0  0  0  0  0  0
  -56.5428   70.5350  355.5237 H   0  0  0  0  0  0  0  0  0  0  0  0
  -56.6043   72.3998  353.1697 H   0  0  0  0  0  0  0  0  0  0  0  0
  -56.4095   73.0619  356.1430 H   0  0  0  0  0  0  0  0  0  0  0  0
  -55.2223   73.4759  354.8600 H   0  0  0  0  0  0  0  0  0  0  0  0
  -56.8478   74.2403  354.8600 H   0  0  0  0  0  0  0  0  0  0  0  0
  -58.5879   72.0041  355.4310 H   0  0  0  0  0  0  0  0  0  0  0  0
  -58.7607   73.0162  353.9217 H   0  0  0  0  0  0  0  0  0  0  0  0
  -59.9285   71.2110  353.2375 H   0  0  0  0  0  0  0  0  0  0  0  0
  -58.2359   70.6625  352.8062 H   0  0  0  0  0  0  0  0  0  0  0  0
  -58.2009   69.0417  354.3587 H   0  0  0  0  0  0  0  0  0  0  0  0
  -59.2480   69.9800  355.5087 H   0  0  0  0  0  0  0  0  0  0  0  0
  -61.1800   69.2526  354.5974 H   0  0  0  0  0  0  0  0  0  0  0  0
  -60.1782   67.2618  355.5154 H   0  0  0  0  0  0  0  0  0  0  0  0
  -61.0391   66.8057  354.0062 H   0  0  0  0  0  0  0  0  0  0  0  0
  -59.2500   66.9659  354.0062 H   0  0  0  0  0  0  0  0  0  0  0  0
  -61.4011   69.6018  352.3727 H   0  0  0  0  0  0  0  0  0  0  0  0
  -59.6054   69.3557  352.1247 H   0  0  0  0  0  0  0  0  0  0  0  0
  -60.0184   66.8966  352.1820 H   0  0  0  0  0  0  0  0  0  0  0  0
  -61.7806   67.2437  352.1606 H   0  0  0  0  0  0  0  0  0  0  0  0
  -61.2947   68.7107  350.0892 H   0  0  0  0  0  0  0  0  0  0  0  0
  -59.6771   67.8919  350.0618 H   0  0  0  0  0  0  0  0  0  0  0  0
  -61.7628   66.9504  348.6674 H   0  0  0  0  0  0  0  0  0  0  0  0
  -62.2071   66.1197  351.5186 H   0  0  0  0  0  0  0  0  0  0  0  0
  -63.3909   66.4812  350.2168 H   0  0  0  0  0  0  0  0  0  0  0  0
  -62.5053   64.9184  350.2168 H   0  0  0  0  0  0  0  0  0  0  0  0
  -59.8589   65.2348  350.3384 H   0  0  0  0  0  0  0  0  0  0  0  0
  -60.6588   64.7530  348.8039 H   0  0  0  0  0  0  0  0  0  0  0  0
  -59.4323   66.0653  348.8039 H   0  0  0  0  0  0  0  0  0  0  0  0
  1  6  1  0
  1 36  2  0
  1 40  1  0
  2  9  2  0
  2 17  1  0
  3 20  1  0
  3 25  2  0
  4 28  1  0
  4 33  2  0
  5  6  2  0
  5  9  1  0
  6  7  1  0
  7  8  1  0
  7 11  1  0
  8  9  1  0
  8 10  1  0
 11 12  1  0
 12 13  1  0
 13 14  2  0
 13 15  1  0
 15 45  1  0
 16 17  1  0
 16 20  1  0
 17 18  2  0
 18 19  1  0
 18 21  1  0
 19 20  2  0
 19 22  1  0
 22 23  2  0
 24 25  1  0
 24 28  2  0
 25 26  1  0
 26 27  2  0
 26 29  1  0
 27 28  1  0
 27 30  1  0
 30 31  1  0
 32 33  1  0
 32 36  1  0
 33 34  1  0
 34 35  2  0
 34 37  1  0
 35 36  1  0
 35 38  1  0
 38 39  2  0
 38 40  1  0
 40 41  1  0
 41 42  2  0
 41 43  1  0
 43 44  1  0
 45 46  1  0
 46 47  2  3
 47 48  1  0
 47 49  1  0
 49 50  1  0
 50 51  1  0
 51 52  1  0
 52 53  1  0
 52 54  1  0
 54 55  1  0
 55 56  1  0
 56 57  1  0
 57 58  1  0
 57 59  1  0
 59 60  1  0
 60 61  1  0
 61 62  1  0
 62 63  1  0
 62 64  1  0
  2 65  1  0
  3 66  1  0
  4 67  1  0
  7 68  1  6
  8 69  1  1
 10 70  1  0
 10 71  1  0
 10 72  1  0
 11 73  1  0
 11 74  1  0
 12 75  1  0
 12 76  1  0
 16 77  1  0
 21 78  1  0
 21 79  1  0
 21 80  1  0
 22 81  1  0
 23 82  1  0
 23 83  1  0
 29 84  1  0
 29 85  1  0
 29 86  1  0
 30 87  1  0
 30 88  1  0
 31 89  1  0
 31 90  1  0
 31 91  1  0
 32 92  1  0
 37 93  1  0
 37 94  1  0
 37 95  1  0
 40 96  1  1
 44 97  1  0
 44 98  1  0
 44 99  1  0
 45100  1  0
 45101  1  0
 46102  1  0
 48103  1  0
 48104  1  0
 48105  1  0
 49106  1  0
 49107  1  0
 50108  1  0
 50109  1  0
 51110  1  0
 51111  1  0
 52112  1  6
 53113  1  0
 53114  1  0
 53115  1  0
 54116  1  0
 54117  1  0
 55118  1  0
 55119  1  0
 56120  1  0
 56121  1  0
 57122  1  1
 58123  1  0
 58124  1  0
 58125  1  0
 59126  1  0
 59127  1  0
 60128  1  0
 60129  1  0
 61130  1  0
 61131  1  0
 62132  1  6
 63133  1  0
 63134  1  0
 63135  1  0
 64136  1  0
 64137  1  0
 64138  1  0
M  END
>  <filename_input>  (12) 
8F4J_PHO_docked.sdf

>  <pdb_id>  (12) 
8F4J_PHO

>  <pose_rank>  (12) 
11

>  <num_atoms_heavy>  (12) 
64

>  <num_torsions>  (12) 
22

>  <pose>  (12) 
[-55.46518912001825, 64.43270274146795, 346.73730079854937, 0.7902501797361418, 0.313646548042865, -0.4845296764666581, -1.9738222522252145, 0.7297295690691148, 1.0582035450104375, 1.1943401841495236, 1.0038560940366148, -4.727019350743433, -0.18264007716370895, -3.887568075412794, -4.723186559854615, -1.2084649563761365, 1.7635850923388188, 1.7623214497703197, 1.5109568546762366, 0.3057096707844372, 0.17367659272610708, -3.4959632080380816, -0.6790325180229155, -2.30978086809877, 3.6439493238399603, 0.10740220953307188, 0.39628678282726126, -2.576686110674844]

>  <energy>  (12) 
-488.1302340656471

>  <inter_energy>  (12) 
-556.5374121009519

>  <intra_energy>  (12) 
64.6065003420591

>  <rmsd>  (12) 
6.55353

>  <sdf_rank>  (12) 
0

$$$$

     RDKit          3D

138143  0  0  0  0  0  0  0  0999 V2000
  -55.4338   58.6502  345.2623 C   0  0  0  0  0  0  0  0  0  0  0  0
  -56.7975   62.6457  342.9422 C   0  0  0  0  0  0  0  0  0  0  0  0
  -55.5487   65.2610  346.9307 C   0  0  0  0  0  0  0  0  0  0  0  0
  -53.9669   61.2545  349.2609 C   0  0  0  0  0  0  0  0  0  0  0  0
  -55.9666   60.8155  344.3194 N   0  0  0  0  0  0  0  0  0  0  0  0
  -55.9647   59.3937  344.2753 C   0  0  0  0  0  0  0  0  0  0  0  0
  -56.5266   58.8923  342.9638 C   0  0  2  0  0  0  0  0  0  0  0  0
  -56.6243   60.2014  342.1249 C   0  0  1  0  0  0  0  0  0  0  0  0
  -56.4665   61.2807  343.1954 C   0  0  0  0  0  0  0  0  0  0  0  0
  -55.5156   60.2435  341.1126 C   0  0  0  0  0  0  0  0  0  0  0  0
  -57.8585   58.1983  343.1136 C   0  0  0  0  0  0  0  0  0  0  0  0
  -58.8800   59.1923  343.6336 C   0  0  0  0  0  0  0  0  0  0  0  0
  -60.1981   58.5092  343.7996 C   0  0  0  0  0  0  0  0  0  0  0  0
  -60.6095   57.5036  343.2163 O   0  0  0  0  0  0  0  0  0  0  0  0
  -61.0098   59.1277  344.7042 O   0  0  0  0  0  0  0  0  0  0  0  0
  -56.1346   63.6056  345.1450 N   0  0  0  0  0  0  0  0  0  0  0  0
  -56.6421   63.6558  343.8424 C   0  0  0  0  0  0  0  0  0  0  0  0
  -56.9920   65.0734  343.5780 C   0  0  0  0  0  0  0  0  0  0  0  0
  -56.6433   65.8197  344.6891 C   0  0  0  0  0  0  0  0  0  0  0  0
  -56.0815   64.8931  345.7264 C   0  0  0  0  0  0  0  0  0  0  0  0
  -57.5329   65.4546  342.2744 C   0  0  0  0  0  0  0  0  0  0  0  0
  -56.6964   67.2380  344.9304 C   0  0  0  0  0  0  0  0  0  0  0  0
  -55.8128   67.9403  345.6358 C   0  0  0  0  0  0  0  0  0  0  0  0
  -54.9809   63.0708  347.9123 N   0  0  0  0  0  0  0  0  0  0  0  0
  -55.0294   64.4006  347.9670 C   0  0  0  0  0  0  0  0  0  0  0  0
  -54.3482   64.8881  349.2104 C   0  0  0  0  0  0  0  0  0  0  0  0
  -53.8492   63.7592  349.8383 C   0  0  0  0  0  0  0  0  0  0  0  0
  -54.2626   62.5744  349.0312 C   0  0  0  0  0  0  0  0  0  0  0  0
  -54.1794   66.2964  349.5836 C   0  0  0  0  0  0  0  0  0  0  0  0
  -53.0849   63.6725  351.0966 C   0  0  0  0  0  0  0  0  0  0  0  0
  -53.9825   63.3732  352.2924 C   0  0  0  0  0  0  0  0  0  0  0  0
  -55.0336   60.3339  347.2066 N   0  0  0  0  0  0  0  0  0  0  0  0
  -54.3111   60.1619  348.4106 C   0  0  0  0  0  0  0  0  0  0  0  0
  -53.9826   58.7635  348.5493 C   0  0  0  0  0  0  0  0  0  0  0  0
  -54.4211   58.1353  347.3619 C   0  0  0  0  0  0  0  0  0  0  0  0
  -55.0167   59.1607  346.5368 C   0  0  0  0  0  0  0  0  0  0  0  0
  -53.3043   58.1067  349.6704 C   0  0  0  0  0  0  0  0  0  0  0  0
  -54.4564   56.8744  346.6522 C   0  0  0  0  0  0  0  0  0  0  0  0
  -54.0662   55.7719  347.0010 O   0  0  0  0  0  0  0  0  0  0  0  0
  -55.0724   57.1761  345.2487 C   0  0  2  0  0  0  0  0  0  0  0  0
  -54.0662   56.8203  344.1878 C   0  0  0  0  0  0  0  0  0  0  0  0
  -52.8441   56.9036  344.2310 O   0  0  0  0  0  0  0  0  0  0  0  0
  -54.6500   56.3553  343.0278 O   0  0  0  0  0  0  0  0  0  0  0  0
  -53.8504   55.5003  342.2200 C   0  0  0  0  0  0  0  0  0  0  0  0
  -62.3538   58.6090  344.8571 C   0  0  0  0  0  0  0  0  0  0  0  0
  -62.5409   58.1849  346.2701 C   0  0  0  0  0  0  0  0  0  0  0  0
  -63.7232   58.3595  346.8663 C   0  0  0  0  0  0  0  0  0  0  0  0
  -64.8182   58.9766  346.0973 C   0  0  0  0  0  0  0  0  0  0  0  0
  -64.0116   57.9675  348.2844 C   0  0  0  0  0  0  0  0  0  0  0  0
  -62.7939   57.5374  349.1120 C   0  0  0  0  0  0  0  0  0  0  0  0
  -62.8170   56.0374  349.3843 C   0  0  0  0  0  0  0  0  0  0  0  0
  -61.4323   55.4049  349.4867 C   0  0  2  0  0  0  0  0  0  0  0  0
  -61.5505   53.9063  349.5278 C   0  0  0  0  0  0  0  0  0  0  0  0
  -60.6340   55.9047  350.6922 C   0  0  0  0  0  0  0  0  0  0  0  0
  -60.8032   55.0314  351.9329 C   0  0  0  0  0  0  0  0  0  0  0  0
  -59.6779   55.1751  352.9502 C   0  0  0  0  0  0  0  0  0  0  0  0
  -59.6812   54.0437  353.9759 C   0  0  2  0  0  0  0  0  0  0  0  0
  -60.9993   53.2740  353.9992 C   0  0  0  0  0  0  0  0  0  0  0  0
  -59.4164   54.5985  355.3623 C   0  0  0  0  0  0  0  0  0  0  0  0
  -60.4106   55.6553  355.7983 C   0  0  0  0  0  0  0  0  0  0  0  0
  -59.6595   56.9101  356.2356 C   0  0  0  0  0  0  0  0  0  0  0  0
  -60.2239   57.4829  357.5286 C   0  0  2  0  0  0  0  0  0  0  0  0
  -59.2664   57.2380  358.6704 C   0  0  0  0  0  0  0  0  0  0  0  0
  -61.5435   56.8122  357.8196 C   0  0  0  0  0  0  0  0  0  0  0  0
  -57.2059   62.8991  341.9528 H   0  0  0  0  0  0  0  0  0  0  0  0
  -55.5112   66.3414  347.1342 H   0  0  0  0  0  0  0  0  0  0  0  0
  -53.4154   61.0176  350.1827 H   0  0  0  0  0  0  0  0  0  0  0  0
  -55.9015   58.1165  342.4975 H   0  0  0  0  0  0  0  0  0  0  0  0
  -57.5526   60.3103  341.5449 H   0  0  0  0  0  0  0  0  0  0  0  0
  -54.5465   60.2803  341.6316 H   0  0  0  0  0  0  0  0  0  0  0  0
  -55.5601   59.3430  340.4824 H   0  0  0  0  0  0  0  0  0  0  0  0
  -55.6283   61.1380  340.4824 H   0  0  0  0  0  0  0  0  0  0  0  0
  -58.1846   57.8120  342.1366 H   0  0  0  0  0  0  0  0  0  0  0  0
  -57.7629   57.3609  343.8204 H   0  0  0  0  0  0  0  0  0  0  0  0
  -58.5465   59.5870  344.6047 H   0  0  0  0  0  0  0  0  0  0  0  0
  -58.9836   60.0210  342.9177 H   0  0  0  0  0  0  0  0  0  0  0  0
  -55.8375   62.7412  345.6197 H   0  0  0  0  0  0  0  0  0  0  0  0
  -58.4245   66.0829  342.4169 H   0  0  0  0  0  0  0  0  0  0  0  0
  -56.7733   66.0180  341.7128 H   0  0  0  0  0  0  0  0  0  0  0  0
  -57.8080   64.5497  341.7128 H   0  0  0  0  0  0  0  0  0  0  0  0
  -57.5417   67.7899  344.4932 H   0  0  0  0  0  0  0  0  0  0  0  0
  -55.9462   69.0250  345.7607 H   0  0  0  0  0  0  0  0  0  0  0  0
  -54.9493   67.4360  346.0940 H   0  0  0  0  0  0  0  0  0  0  0  0
  -54.1686   66.3864  350.6799 H   0  0  0  0  0  0  0  0  0  0  0  0
  -53.2297   66.6725  349.1754 H   0  0  0  0  0  0  0  0  0  0  0  0
  -55.0132   66.8864  349.1754 H   0  0  0  0  0  0  0  0  0  0  0  0
  -52.3383   62.8701  351.0037 H   0  0  0  0  0  0  0  0  0  0  0  0
  -52.6039   64.6466  351.2690 H   0  0  0  0  0  0  0  0  0  0  0  0
  -53.4267   63.5585  353.2235 H   0  0  0  0  0  0  0  0  0  0  0  0
  -54.8682   64.0246  352.2583 H   0  0  0  0  0  0  0  0  0  0  0  0
  -54.2999   62.3206  352.2583 H   0  0  0  0  0  0  0  0  0  0  0  0
  -55.4923   61.2018  346.8950 H   0  0  0  0  0  0  0  0  0  0  0  0
  -53.7045   58.4942  350.6189 H   0  0  0  0  0  0  0  0  0  0  0  0
  -53.4745   57.0213  349.6169 H   0  0  0  0  0  0  0  0  0  0  0  0
  -52.2249   58.3117  349.6169 H   0  0  0  0  0  0  0  0  0  0  0  0
  -55.9731   56.5847  345.0276 H   0  0  0  0  0  0  0  0  0  0  0  0
  -53.2419   54.8497  342.8653 H   0  0  0  0  0  0  0  0  0  0  0  0
  -54.5014   54.8815  341.5849 H   0  0  0  0  0  0  0  0  0  0  0  0
  -53.1894   56.1085  341.5849 H   0  0  0  0  0  0  0  0  0  0  0  0
  -63.0841   59.3921  344.6055 H   0  0  0  0  0  0  0  0  0  0  0  0
  -62.5045   57.7518  344.1844 H   0  0  0  0  0  0  0  0  0  0  0  0
  -61.7069   57.7283  346.8234 H   0  0  0  0  0  0  0  0  0  0  0  0
  -65.5622   59.3958  346.7907 H   0  0  0  0  0  0  0  0  0  0  0  0
  -64.4140   59.7797  345.4637 H   0  0  0  0  0  0  0  0  0  0  0  0
  -65.2959   58.2148  345.4637 H   0  0  0  0  0  0  0  0  0  0  0  0
  -64.4751   58.8295  348.7865 H   0  0  0  0  0  0  0  0  0  0  0  0
  -64.6642   57.0840  348.2264 H   0  0  0  0  0  0  0  0  0  0  0  0
  -61.8768   57.7880  348.5586 H   0  0  0  0  0  0  0  0  0  0  0  0
  -62.8213   58.0678  350.0753 H   0  0  0  0  0  0  0  0  0  0  0  0
  -63.3468   55.8660  350.3330 H   0  0  0  0  0  0  0  0  0  0  0  0
  -63.3203   55.5656  348.5275 H   0  0  0  0  0  0  0  0  0  0  0  0
  -60.8752   55.7113  348.5890 H   0  0  0  0  0  0  0  0  0  0  0  0
  -61.5771   53.5692  350.5745 H   0  0  0  0  0  0  0  0  0  0  0  0
  -62.4758   53.5974  349.0194 H   0  0  0  0  0  0  0  0  0  0  0  0
  -60.6851   53.4562  349.0194 H   0  0  0  0  0  0  0  0  0  0  0  0
  -59.5680   55.9238  350.4214 H   0  0  0  0  0  0  0  0  0  0  0  0
  -61.0158   56.9052  350.9436 H   0  0  0  0  0  0  0  0  0  0  0  0
  -61.7493   55.3056  352.4226 H   0  0  0  0  0  0  0  0  0  0  0  0
  -60.7910   53.9861  351.5904 H   0  0  0  0  0  0  0  0  0  0  0  0
  -58.7155   55.1679  352.4175 H   0  0  0  0  0  0  0  0  0  0  0  0
  -59.8289   56.1215  353.4900 H   0  0  0  0  0  0  0  0  0  0  0  0
  -58.8854   53.3455  353.6772 H   0  0  0  0  0  0  0  0  0  0  0  0
  -61.3023   53.0971  355.0418 H   0  0  0  0  0  0  0  0  0  0  0  0
  -61.7757   53.8608  353.4863 H   0  0  0  0  0  0  0  0  0  0  0  0
  -60.8699   52.3096  353.4863 H   0  0  0  0  0  0  0  0  0  0  0  0
  -59.4559   53.7674  356.0818 H   0  0  0  0  0  0  0  0  0  0  0  0
  -58.4287   55.0816  355.3307 H   0  0  0  0  0  0  0  0  0  0  0  0
  -61.0770   55.9008  354.9583 H   0  0  0  0  0  0  0  0  0  0  0  0
  -61.0072   55.2729  356.6397 H   0  0  0  0  0  0  0  0  0  0  0  0
  -58.6006   56.6558  356.3908 H   0  0  0  0  0  0  0  0  0  0  0  0
  -59.7714   57.6688  355.4470 H   0  0  0  0  0  0  0  0  0  0  0  0
  -60.3675   58.5680  357.4185 H   0  0  0  0  0  0  0  0  0  0  0  0
  -59.7936   57.3729  359.6264 H   0  0  0  0  0  0  0  0  0  0  0  0
  -58.8767   56.2112  358.6082 H   0  0  0  0  0  0  0  0  0  0  0  0
  -58.4315   57.9515  358.6082 H   0  0  0  0  0  0  0  0  0  0  0  0
  -61.6858   56.7398  358.9080 H   0  0  0  0  0  0  0  0  0  0  0  0
  -62.3603   57.4045  357.3816 H   0  0  0  0  0  0  0  0  0  0  0  0
  -61.5464   55.8032  357.3816 H   0  0  0  0  0  0  0  0  0  0  0  0
  1  6  1  0
  1 36  2  0
  1 40  1  0
  2  9  2  0
  2 17  1  0
  3 20  1  0
  3 25  2  0
  4 28  1  0
  4 33  2  0
  5  6  2  0
  5  9  1  0
  6  7  1  0
  7  8  1  0
  7 11  1  0
  8  9  1  0
  8 10  1  0
 11 12  1  0
 12 13  1  0
 13 14  2  0
 13 15  1  0
 15 45  1  0
 16 17  1  0
 16 20  1  0
 17 18  2  0
 18 19  1  0
 18 21  1  0
 19 20  2  0
 19 22  1  0
 22 23  2  0
 24 25  1  0
 24 28  2  0
 25 26  1  0
 26 27  2  0
 26 29  1  0
 27 28  1  0
 27 30  1  0
 30 31  1  0
 32 33  1  0
 32 36  1  0
 33 34  1  0
 34 35  2  0
 34 37  1  0
 35 36  1  0
 35 38  1  0
 38 39  2  0
 38 40  1  0
 40 41  1  0
 41 42  2  0
 41 43  1  0
 43 44  1  0
 45 46  1  0
 46 47  2  3
 47 48  1  0
 47 49  1  0
 49 50  1  0
 50 51  1  0
 51 52  1  0
 52 53  1  0
 52 54  1  0
 54 55  1  0
 55 56  1  0
 56 57  1  0
 57 58  1  0
 57 59  1  0
 59 60  1  0
 60 61  1  0
 61 62  1  0
 62 63  1  0
 62 64  1  0
  2 65  1  0
  3 66  1  0
  4 67  1  0
  7 68  1  6
  8 69  1  6
 10 70  1  0
 10 71  1  0
 10 72  1  0
 11 73  1  0
 11 74  1  0
 12 75  1  0
 12 76  1  0
 16 77  1  0
 21 78  1  0
 21 79  1  0
 21 80  1  0
 22 81  1  0
 23 82  1  0
 23 83  1  0
 29 84  1  0
 29 85  1  0
 29 86  1  0
 30 87  1  0
 30 88  1  0
 31 89  1  0
 31 90  1  0
 31 91  1  0
 32 92  1  0
 37 93  1  0
 37 94  1  0
 37 95  1  0
 40 96  1  6
 44 97  1  0
 44 98  1  0
 44 99  1  0
 45100  1  0
 45101  1  0
 46102  1  0
 48103  1  0
 48104  1  0
 48105  1  0
 49106  1  0
 49107  1  0
 50108  1  0
 50109  1  0
 51110  1  0
 51111  1  0
 52112  1  6
 53113  1  0
 53114  1  0
 53115  1  0
 54116  1  0
 54117  1  0
 55118  1  0
 55119  1  0
 56120  1  0
 56121  1  0
 57122  1  6
 58123  1  0
 58124  1  0
 58125  1  0
 59126  1  0
 59127  1  0
 60128  1  0
 60129  1  0
 61130  1  0
 61131  1  0
 62132  1  6
 63133  1  0
 63134  1  0
 63135  1  0
 64136  1  0
 64137  1  0
 64138  1  0
M  END
>  <filename_input>  (13) 
8F4J_PHO_docked.sdf

>  <pdb_id>  (13) 
8F4J_PHO

>  <pose_rank>  (13) 
12

>  <num_atoms_heavy>  (13) 
64

>  <num_torsions>  (13) 
22

>  <pose>  (13) 
[-55.43377515654041, 58.65017039056912, 345.26233897677696, 3.7169253141406187, 0.8262422104387995, -1.2382021577961695, 3.369358649480315, -0.23237575814505634, 4.160685726996209, 0.5713375333218912, 4.351426639628183, 12.484421987532878, -6.9690041677106, -19.20808862484263, -43.28052648166608, -26.514527615982438, -10.418549373185627, 19.839787207690172, -26.00745244787596, -1.9633771297320786, -22.439672323966143, -21.202422926240516, -6.127788291384946, 26.114411171448037, 21.171115053365646, 25.991910100676254, 0.9056100723437448, -1.2351679367391117]

>  <energy>  (13) 
-444.2541791975554

>  <inter_energy>  (13) 
-482.0149155404062

>  <intra_energy>  (13) 
39.84612116296582

>  <rmsd>  (13) 
8.82392

>  <sdf_rank>  (13) 
0

$$$$

     RDKit          3D

138143  0  0  0  0  0  0  0  0999 V2000
  -55.5994   58.5455  343.4434 C   0  0  0  0  0  0  0  0  0  0  0  0
  -55.0516   59.4889  348.1356 C   0  0  0  0  0  0  0  0  0  0  0  0
  -55.6858   64.2756  347.1392 C   0  0  0  0  0  0  0  0  0  0  0  0
  -56.4436   63.3517  342.3899 C   0  0  0  0  0  0  0  0  0  0  0  0
  -55.4412   59.3024  345.7377 N   0  0  0  0  0  0  0  0  0  0  0  0
  -55.3376   58.2952  344.7387 C   0  0  0  0  0  0  0  0  0  0  0  0
  -55.0102   56.9534  345.3550 C   0  0  2  0  0  0  0  0  0  0  0  0
  -55.1873   57.2374  346.8765 C   0  0  1  0  0  0  0  0  0  0  0  0
  -55.2146   58.7650  346.9164 C   0  0  0  0  0  0  0  0  0  0  0  0
  -56.4753   56.6366  347.3619 C   0  0  0  0  0  0  0  0  0  0  0  0
  -53.6237   56.4642  345.0136 C   0  0  0  0  0  0  0  0  0  0  0  0
  -53.2898   55.2700  345.8880 C   0  0  0  0  0  0  0  0  0  0  0  0
  -51.8614   55.3528  346.3176 C   0  0  0  0  0  0  0  0  0  0  0  0
  -50.8593   55.4420  345.6044 O   0  0  0  0  0  0  0  0  0  0  0  0
  -51.7072   55.2995  347.6714 O   0  0  0  0  0  0  0  0  0  0  0  0
  -55.3368   61.7976  347.2403 N   0  0  0  0  0  0  0  0  0  0  0  0
  -55.1049   60.8458  348.2389 C   0  0  0  0  0  0  0  0  0  0  0  0
  -54.9299   61.5960  349.5073 C   0  0  0  0  0  0  0  0  0  0  0  0
  -55.1089   62.9416  349.2423 C   0  0  0  0  0  0  0  0  0  0  0  0
  -55.3761   63.1055  347.7754 C   0  0  0  0  0  0  0  0  0  0  0  0
  -54.6924   60.8676  350.7523 C   0  0  0  0  0  0  0  0  0  0  0  0
  -55.1228   64.0842  350.1181 C   0  0  0  0  0  0  0  0  0  0  0  0
  -54.0555   64.7753  350.5116 C   0  0  0  0  0  0  0  0  0  0  0  0
  -55.8684   63.5327  344.7945 N   0  0  0  0  0  0  0  0  0  0  0  0
  -55.9171   64.4802  345.7291 C   0  0  0  0  0  0  0  0  0  0  0  0
  -56.3734   65.7741  345.1246 C   0  0  0  0  0  0  0  0  0  0  0  0
  -56.6448   65.4980  343.7950 C   0  0  0  0  0  0  0  0  0  0  0  0
  -56.3069   64.0648  343.5539 C   0  0  0  0  0  0  0  0  0  0  0  0
  -56.5771   67.0251  345.8624 C   0  0  0  0  0  0  0  0  0  0  0  0
  -57.1332   66.4160  342.7493 C   0  0  0  0  0  0  0  0  0  0  0  0
  -56.0185   67.2950  342.1925 C   0  0  0  0  0  0  0  0  0  0  0  0
  -55.7377   61.1405  343.2939 N   0  0  0  0  0  0  0  0  0  0  0  0
  -56.1893   61.9571  342.2307 C   0  0  0  0  0  0  0  0  0  0  0  0
  -56.3701   61.1274  341.0638 C   0  0  0  0  0  0  0  0  0  0  0  0
  -56.1282   59.7996  341.4821 C   0  0  0  0  0  0  0  0  0  0  0  0
  -55.7935   59.8535  342.8864 C   0  0  0  0  0  0  0  0  0  0  0  0
  -56.7560   61.5475  339.7136 C   0  0  0  0  0  0  0  0  0  0  0  0
  -56.1339   58.4189  341.0479 C   0  0  0  0  0  0  0  0  0  0  0  0
  -56.3568   57.9496  339.9435 O   0  0  0  0  0  0  0  0  0  0  0  0
  -55.8366   57.5570  342.3164 C   0  0  2  0  0  0  0  0  0  0  0  0
  -57.0022   56.6387  342.5662 C   0  0  0  0  0  0  0  0  0  0  0  0
  -56.9931   55.4406  342.8247 O   0  0  0  0  0  0  0  0  0  0  0  0
  -58.2206   57.2776  342.4668 O   0  0  0  0  0  0  0  0  0  0  0  0
  -59.3657   56.4385  342.3785 C   0  0  0  0  0  0  0  0  0  0  0  0
  -52.2394   56.4019  348.4463 C   0  0  0  0  0  0  0  0  0  0  0  0
  -51.7747   57.6771  347.8385 C   0  0  0  0  0  0  0  0  0  0  0  0
  -51.6401   58.7666  348.5993 C   0  0  0  0  0  0  0  0  0  0  0  0
  -51.9624   58.6712  350.0339 C   0  0  0  0  0  0  0  0  0  0  0  0
  -51.1808   60.0969  348.0823 C   0  0  0  0  0  0  0  0  0  0  0  0
  -50.0790   60.0473  347.0163 C   0  0  0  0  0  0  0  0  0  0  0  0
  -48.8937   60.9216  347.4105 C   0  0  0  0  0  0  0  0  0  0  0  0
  -47.7576   60.9207  346.3922 C   0  0  2  0  0  0  0  0  0  0  0  0
  -46.5087   61.4855  347.0109 C   0  0  0  0  0  0  0  0  0  0  0  0
  -48.1024   61.6816  345.1106 C   0  0  0  0  0  0  0  0  0  0  0  0
  -47.2169   62.9030  344.8764 C   0  0  0  0  0  0  0  0  0  0  0  0
  -46.6245   62.9794  343.4747 C   0  0  0  0  0  0  0  0  0  0  0  0
  -47.4273   63.9020  342.5599 C   0  0  2  0  0  0  0  0  0  0  0  0
  -48.2962   64.8891  343.3352 C   0  0  0  0  0  0  0  0  0  0  0  0
  -48.3180   63.0816  341.6469 C   0  0  0  0  0  0  0  0  0  0  0  0
  -47.5963   62.5024  340.4473 C   0  0  0  0  0  0  0  0  0  0  0  0
  -48.0227   61.0501  340.2501 C   0  0  0  0  0  0  0  0  0  0  0  0
  -48.5475   60.8031  338.8421 C   0  0  2  0  0  0  0  0  0  0  0  0
  -47.8121   59.6479  338.2057 C   0  0  0  0  0  0  0  0  0  0  0  0
  -48.3387   62.0518  338.0218 C   0  0  0  0  0  0  0  0  0  0  0  0
  -54.8705   58.9116  349.0543 H   0  0  0  0  0  0  0  0  0  0  0  0
  -55.7686   65.1672  347.7781 H   0  0  0  0  0  0  0  0  0  0  0  0
  -56.7793   63.9046  341.5001 H   0  0  0  0  0  0  0  0  0  0  0  0
  -55.6513   56.1414  344.9814 H   0  0  0  0  0  0  0  0  0  0  0  0
  -54.4051   56.8092  347.5207 H   0  0  0  0  0  0  0  0  0  0  0  0
  -56.4861   56.6316  348.4618 H   0  0  0  0  0  0  0  0  0  0  0  0
  -57.3213   57.2330  346.9897 H   0  0  0  0  0  0  0  0  0  0  0  0
  -56.5620   55.6051  346.9897 H   0  0  0  0  0  0  0  0  0  0  0  0
  -53.5881   56.1672  343.9551 H   0  0  0  0  0  0  0  0  0  0  0  0
  -52.8933   57.2678  345.1889 H   0  0  0  0  0  0  0  0  0  0  0  0
  -53.9403   55.2714  346.7750 H   0  0  0  0  0  0  0  0  0  0  0  0
  -53.4488   54.3423  345.3188 H   0  0  0  0  0  0  0  0  0  0  0  0
  -55.4627   61.5741  346.2428 H   0  0  0  0  0  0  0  0  0  0  0  0
  -54.9066   61.5246  351.6081 H   0  0  0  0  0  0  0  0  0  0  0  0
  -55.3497   59.9865  350.7928 H   0  0  0  0  0  0  0  0  0  0  0  0
  -53.6420   60.5435  350.7928 H   0  0  0  0  0  0  0  0  0  0  0  0
  -56.1017   64.4152  350.4953 H   0  0  0  0  0  0  0  0  0  0  0  0
  -54.1756   65.6364  351.1855 H   0  0  0  0  0  0  0  0  0  0  0  0
  -53.0533   64.4854  350.1629 H   0  0  0  0  0  0  0  0  0  0  0  0
  -56.5442   66.8230  346.9432 H   0  0  0  0  0  0  0  0  0  0  0  0
  -55.7835   67.7397  345.5987 H   0  0  0  0  0  0  0  0  0  0  0  0
  -57.5564   67.4511  345.5987 H   0  0  0  0  0  0  0  0  0  0  0  0
  -57.5611   65.8227  341.9278 H   0  0  0  0  0  0  0  0  0  0  0  0
  -57.8897   67.0739  343.2020 H   0  0  0  0  0  0  0  0  0  0  0  0
  -55.4530   67.7408  343.0241 H   0  0  0  0  0  0  0  0  0  0  0  0
  -55.3430   66.6838  341.5759 H   0  0  0  0  0  0  0  0  0  0  0  0
  -56.4552   68.0944  341.5759 H   0  0  0  0  0  0  0  0  0  0  0  0
  -55.4216   61.4695  344.2173 H   0  0  0  0  0  0  0  0  0  0  0  0
  -57.4989   62.3561  339.7795 H   0  0  0  0  0  0  0  0  0  0  0  0
  -55.8680   61.9085  339.1741 H   0  0  0  0  0  0  0  0  0  0  0  0
  -57.1908   60.6932  339.1741 H   0  0  0  0  0  0  0  0  0  0  0  0
  -54.9535   56.9097  342.2109 H   0  0  0  0  0  0  0  0  0  0  0  0
  -59.7128   56.1841  343.3909 H   0  0  0  0  0  0  0  0  0  0  0  0
  -60.1658   56.9656  341.8382 H   0  0  0  0  0  0  0  0  0  0  0  0
  -59.1040   55.5167  341.8382 H   0  0  0  0  0  0  0  0  0  0  0  0
  -53.3387   56.3654  348.4361 H   0  0  0  0  0  0  0  0  0  0  0  0
  -51.8902   56.3326  349.4872 H   0  0  0  0  0  0  0  0  0  0  0  0
  -51.5423   57.7230  346.7644 H   0  0  0  0  0  0  0  0  0  0  0  0
  -51.0744   58.9340  350.6275 H   0  0  0  0  0  0  0  0  0  0  0  0
  -52.7817   59.3653  350.2726 H   0  0  0  0  0  0  0  0  0  0  0  0
  -52.2718   57.6429  350.2726 H   0  0  0  0  0  0  0  0  0  0  0  0
  -52.0509   60.6098  347.6466 H   0  0  0  0  0  0  0  0  0  0  0  0
  -50.7428   60.6207  348.9447 H   0  0  0  0  0  0  0  0  0  0  0  0
  -49.7366   59.0082  346.9017 H   0  0  0  0  0  0  0  0  0  0  0  0
  -50.4920   60.4250  346.0694 H   0  0  0  0  0  0  0  0  0  0  0  0
  -49.2506   61.9552  347.5300 H   0  0  0  0  0  0  0  0  0  0  0  0
  -48.4861   60.5043  348.3431 H   0  0  0  0  0  0  0  0  0  0  0  0
  -47.5901   59.8727  346.1029 H   0  0  0  0  0  0  0  0  0  0  0  0
  -46.5930   61.4474  348.1070 H   0  0  0  0  0  0  0  0  0  0  0  0
  -45.6397   60.8928  346.6892 H   0  0  0  0  0  0  0  0  0  0  0  0
  -46.3799   62.5295  346.6892 H   0  0  0  0  0  0  0  0  0  0  0  0
  -47.9867   60.9977  344.2568 H   0  0  0  0  0  0  0  0  0  0  0  0
  -49.1358   62.0436  345.2147 H   0  0  0  0  0  0  0  0  0  0  0  0
  -47.8215   63.8061  345.0462 H   0  0  0  0  0  0  0  0  0  0  0  0
  -46.3714   62.8217  345.5753 H   0  0  0  0  0  0  0  0  0  0  0  0
  -45.5945   63.3591  343.5454 H   0  0  0  0  0  0  0  0  0  0  0  0
  -46.6491   61.9686  343.0415 H   0  0  0  0  0  0  0  0  0  0  0  0
  -46.6963   64.4794  341.9750 H   0  0  0  0  0  0  0  0  0  0  0  0
  -48.1569   64.7308  344.4148 H   0  0  0  0  0  0  0  0  0  0  0  0
  -48.0047   65.9173  343.0747 H   0  0  0  0  0  0  0  0  0  0  0  0
  -49.3530   64.7305  343.0747 H   0  0  0  0  0  0  0  0  0  0  0  0
  -48.7421   62.2513  342.2306 H   0  0  0  0  0  0  0  0  0  0  0  0
  -49.0909   63.7612  341.2583 H   0  0  0  0  0  0  0  0  0  0  0  0
  -47.8512   63.0847  339.5495 H   0  0  0  0  0  0  0  0  0  0  0  0
  -46.5102   62.5462  340.6162 H   0  0  0  0  0  0  0  0  0  0  0  0
  -47.1556   60.3969  340.4270 H   0  0  0  0  0  0  0  0  0  0  0  0
  -48.8330   60.8313  340.9611 H   0  0  0  0  0  0  0  0  0  0  0  0
  -49.6182   60.5548  338.8869 H   0  0  0  0  0  0  0  0  0  0  0  0
  -47.3989   58.9986  338.9916 H   0  0  0  0  0  0  0  0  0  0  0  0
  -48.5086   59.0694  337.5809 H   0  0  0  0  0  0  0  0  0  0  0  0
  -46.9933   60.0340  337.5809 H   0  0  0  0  0  0  0  0  0  0  0  0
  -48.1949   62.9115  338.6928 H   0  0  0  0  0  0  0  0  0  0  0  0
  -47.4486   61.9291  337.3873 H   0  0  0  0  0  0  0  0  0  0  0  0
  -49.2203   62.2253  337.3873 H   0  0  0  0  0  0  0  0  0  0  0  0
  1  6  1  0
  1 36  2  0
  1 40  1  0
  2  9  2  0
  2 17  1  0
  3 20  1  0
  3 25  2  0
  4 28  1  0
  4 33  2  0
  5  6  2  0
  5  9  1  0
  6  7  1  0
  7  8  1  0
  7 11  1  0
  8  9  1  0
  8 10  1  0
 11 12  1  0
 12 13  1  0
 13 14  2  0
 13 15  1  0
 15 45  1  0
 16 17  1  0
 16 20  1  0
 17 18  2  0
 18 19  1  0
 18 21  1  0
 19 20  2  0
 19 22  1  0
 22 23  2  0
 24 25  1  0
 24 28  2  0
 25 26  1  0
 26 27  2  0
 26 29  1  0
 27 28  1  0
 27 30  1  0
 30 31  1  0
 32 33  1  0
 32 36  1  0
 33 34  1  0
 34 35  2  0
 34 37  1  0
 35 36  1  0
 35 38  1  0
 38 39  2  0
 38 40  1  0
 40 41  1  0
 41 42  2  0
 41 43  1  0
 43 44  1  0
 45 46  1  0
 46 47  2  3
 47 48  1  0
 47 49  1  0
 49 50  1  0
 50 51  1  0
 51 52  1  0
 52 53  1  0
 52 54  1  0
 54 55  1  0
 55 56  1  0
 56 57  1  0
 57 58  1  0
 57 59  1  0
 59 60  1  0
 60 61  1  0
 61 62  1  0
 62 63  1  0
 62 64  1  0
  2 65  1  0
  3 66  1  0
  4 67  1  0
  7 68  1  6
  8 69  1  1
 10 70  1  0
 10 71  1  0
 10 72  1  0
 11 73  1  0
 11 74  1  0
 12 75  1  0
 12 76  1  0
 16 77  1  0
 21 78  1  0
 21 79  1  0
 21 80  1  0
 22 81  1  0
 23 82  1  0
 23 83  1  0
 29 84  1  0
 29 85  1  0
 29 86  1  0
 30 87  1  0
 30 88  1  0
 31 89  1  0
 31 90  1  0
 31 91  1  0
 32 92  1  0
 37 93  1  0
 37 94  1  0
 37 95  1  0
 40 96  1  6
 44 97  1  0
 44 98  1  0
 44 99  1  0
 45100  1  0
 45101  1  0
 46102  1  0
 48103  1  0
 48104  1  0
 48105  1  0
 49106  1  0
 49107  1  0
 50108  1  0
 50109  1  0
 51110  1  0
 51111  1  0
 52112  1  6
 53113  1  0
 53114  1  0
 53115  1  0
 54116  1  0
 54117  1  0
 55118  1  0
 55119  1  0
 56120  1  0
 56121  1  0
 57122  1  6
 58123  1  0
 58124  1  0
 58125  1  0
 59126  1  0
 59127  1  0
 60128  1  0
 60129  1  0
 61130  1  0
 61131  1  0
 62132  1  1
 63133  1  0
 63134  1  0
 63135  1  0
 64136  1  0
 64137  1  0
 64138  1  0
M  END
>  <filename_input>  (14) 
8F4J_PHO_docked.sdf

>  <pdb_id>  (14) 
8F4J_PHO

>  <pose_rank>  (14) 
13

>  <num_atoms_heavy>  (14) 
64

>  <num_torsions>  (14) 
22

>  <pose>  (14) 
[-55.599404863848044, 58.545527255551534, 343.44342276375465, 0.7077656709546186, 0.07637202687894735, 2.838698333177898, 1.103923948530647, -0.5245056045255643, 0.7965520595263825, -0.11872134174419452, -0.08721124680521813, 0.5982493485147651, -1.2336357084958658, 1.7223858180821205, -2.2615971108372235, -0.27028640584625, 1.326777632341476, 0.681743484073507, -0.3235696729595593, 4.4244903042216075, 3.1151234300124715, 3.442707057706706, -1.5418904996802114, -4.663012987519397, -0.0847862966315241, -0.83857769232492, 5.461439197798351, -0.9100522505451163]

>  <energy>  (14) 
-408.61555196000586

>  <inter_energy>  (14) 
-426.9720464099093

>  <intra_energy>  (14) 
20.948017070800887

>  <rmsd>  (14) 
11.8759

>  <sdf_rank>  (14) 
0

$$$$

     RDKit          3D

138143  0  0  0  0  0  0  0  0999 V2000
  -54.4975   59.0086  346.9268 C   0  0  0  0  0  0  0  0  0  0  0  0
  -55.0195   63.0623  349.4767 C   0  0  0  0  0  0  0  0  0  0  0  0
  -56.1676   65.4166  345.2998 C   0  0  0  0  0  0  0  0  0  0  0  0
  -55.8411   61.2846  342.6916 C   0  0  0  0  0  0  0  0  0  0  0  0
  -54.9039   61.1619  347.9562 N   0  0  0  0  0  0  0  0  0  0  0  0
  -54.4569   59.8123  348.0044 C   0  0  0  0  0  0  0  0  0  0  0  0
  -54.0554   59.4252  349.4101 C   0  0  2  0  0  0  0  0  0  0  0  0
  -54.5651   60.6381  350.2445 C   0  0  1  0  0  0  0  0  0  0  0  0
  -54.8312   61.6831  349.1615 C   0  0  0  0  0  0  0  0  0  0  0  0
  -55.8164   60.2597  350.9840 C   0  0  0  0  0  0  0  0  0  0  0  0
  -52.5711   59.1980  349.5638 C   0  0  0  0  0  0  0  0  0  0  0  0
  -52.3363   57.7962  350.0949 C   0  0  0  0  0  0  0  0  0  0  0  0
  -52.8284   57.7094  351.5026 C   0  0  0  0  0  0  0  0  0  0  0  0
  -53.7475   58.3445  352.0249 O   0  0  0  0  0  0  0  0  0  0  0  0
  -52.1268   56.8180  352.2594 O   0  0  0  0  0  0  0  0  0  0  0  0
  -55.4727   63.9124  347.1778 N   0  0  0  0  0  0  0  0  0  0  0  0
  -55.2972   64.0309  348.5605 C   0  0  0  0  0  0  0  0  0  0  0  0
  -55.4873   65.4651  348.8907 C   0  0  0  0  0  0  0  0  0  0  0  0
  -55.8137   66.1375  347.7269 C   0  0  0  0  0  0  0  0  0  0  0  0
  -55.8131   65.1541  346.5941 C   0  0  0  0  0  0  0  0  0  0  0  0
  -55.3879   65.9074  350.2805 C   0  0  0  0  0  0  0  0  0  0  0  0
  -56.1704   67.5133  347.4979 C   0  0  0  0  0  0  0  0  0  0  0  0
  -56.1515   68.1360  346.3217 C   0  0  0  0  0  0  0  0  0  0  0  0
  -55.7773   63.2314  344.2250 N   0  0  0  0  0  0  0  0  0  0  0  0
  -56.1494   64.5092  344.1773 C   0  0  0  0  0  0  0  0  0  0  0  0
  -56.6709   64.8410  342.8114 C   0  0  0  0  0  0  0  0  0  0  0  0
  -56.6343   63.6580  342.0925 C   0  0  0  0  0  0  0  0  0  0  0  0
  -56.0424   62.6115  342.9761 C   0  0  0  0  0  0  0  0  0  0  0  0
  -57.2013   66.1464  342.4044 C   0  0  0  0  0  0  0  0  0  0  0  0
  -57.0443   63.4210  340.6959 C   0  0  0  0  0  0  0  0  0  0  0  0
  -57.7090   62.0603  340.5171 C   0  0  0  0  0  0  0  0  0  0  0  0
  -54.9965   60.6090  344.9356 N   0  0  0  0  0  0  0  0  0  0  0  0
  -55.3520   60.3008  343.6015 C   0  0  0  0  0  0  0  0  0  0  0  0
  -55.1751   58.8829  343.3986 C   0  0  0  0  0  0  0  0  0  0  0  0
  -54.8202   58.3454  344.6563 C   0  0  0  0  0  0  0  0  0  0  0  0
  -54.7763   59.4474  345.5894 C   0  0  0  0  0  0  0  0  0  0  0  0
  -55.3511   58.1240  342.1571 C   0  0  0  0  0  0  0  0  0  0  0  0
  -54.5319   57.1144  345.3610 C   0  0  0  0  0  0  0  0  0  0  0  0
  -54.4626   55.9716  344.9384 O   0  0  0  0  0  0  0  0  0  0  0  0
  -54.3589   57.4984  346.8654 C   0  0  2  0  0  0  0  0  0  0  0  0
  -55.3976   56.7723  347.6766 C   0  0  0  0  0  0  0  0  0  0  0  0
  -55.2902   56.2748  348.7917 O   0  0  0  0  0  0  0  0  0  0  0  0
  -56.6107   56.6694  347.0282 O   0  0  0  0  0  0  0  0  0  0  0  0
  -57.6493   56.0057  347.7380 C   0  0  0  0  0  0  0  0  0  0  0  0
  -52.8866   55.9068  353.0909 C   0  0  0  0  0  0  0  0  0  0  0  0
  -51.9363   55.0995  353.9013 C   0  0  0  0  0  0  0  0  0  0  0  0
  -52.2914   53.8851  354.3288 C   0  0  0  0  0  0  0  0  0  0  0  0
  -53.6307   53.3774  353.9826 C   0  0  0  0  0  0  0  0  0  0  0  0
  -51.4077   52.9956  355.1509 C   0  0  0  0  0  0  0  0  0  0  0  0
  -51.8315   52.8121  356.6136 C   0  0  0  0  0  0  0  0  0  0  0  0
  -50.6283   52.5101  357.5002 C   0  0  0  0  0  0  0  0  0  0  0  0
  -50.0914   53.7251  358.2507 C   0  0  2  0  0  0  0  0  0  0  0  0
  -49.4524   53.2939  359.5419 C   0  0  0  0  0  0  0  0  0  0  0  0
  -51.1627   54.7837  358.5196 C   0  0  0  0  0  0  0  0  0  0  0  0
  -50.7151   55.8589  359.5065 C   0  0  0  0  0  0  0  0  0  0  0  0
  -50.6503   57.2595  358.9099 C   0  0  0  0  0  0  0  0  0  0  0  0
  -51.7519   58.1677  359.4519 C   0  0  2  0  0  0  0  0  0  0  0  0
  -53.0905   57.9527  358.7500 C   0  0  0  0  0  0  0  0  0  0  0  0
  -51.3492   59.6217  359.2982 C   0  0  0  0  0  0  0  0  0  0  0  0
  -52.2761   60.5909  360.0032 C   0  0  0  0  0  0  0  0  0  0  0  0
  -52.6850   61.6982  359.0355 C   0  0  0  0  0  0  0  0  0  0  0  0
  -54.1947   61.7493  358.8431 C   0  0  2  0  0  0  0  0  0  0  0  0
  -54.6637   63.1828  358.7687 C   0  0  0  0  0  0  0  0  0  0  0  0
  -54.8550   61.0589  360.0105 C   0  0  0  0  0  0  0  0  0  0  0  0
  -54.9344   63.3633  350.5313 H   0  0  0  0  0  0  0  0  0  0  0  0
  -56.5071   66.4415  345.0888 H   0  0  0  0  0  0  0  0  0  0  0  0
  -56.0778   60.9494  341.6710 H   0  0  0  0  0  0  0  0  0  0  0  0
  -54.4810   58.4621  349.7284 H   0  0  0  0  0  0  0  0  0  0  0  0
  -53.8669   60.9940  351.0165 H   0  0  0  0  0  0  0  0  0  0  0  0
  -55.6331   60.3151  352.0672 H   0  0  0  0  0  0  0  0  0  0  0  0
  -56.6262   60.9532  350.7132 H   0  0  0  0  0  0  0  0  0  0  0  0
  -56.1063   59.2338  350.7132 H   0  0  0  0  0  0  0  0  0  0  0  0
  -52.0783   59.3092  348.5867 H   0  0  0  0  0  0  0  0  0  0  0  0
  -52.1539   59.9351  350.2657 H   0  0  0  0  0  0  0  0  0  0  0  0
  -52.8799   57.0716  349.4708 H   0  0  0  0  0  0  0  0  0  0  0  0
  -51.2604   57.5686  350.0673 H   0  0  0  0  0  0  0  0  0  0  0  0
  -55.3675   63.0329  346.6522 H   0  0  0  0  0  0  0  0  0  0  0  0
  -55.5792   65.0564  350.9507 H   0  0  0  0  0  0  0  0  0  0  0  0
  -54.3785   66.3023  350.4683 H   0  0  0  0  0  0  0  0  0  0  0  0
  -56.1311   66.6963  350.4683 H   0  0  0  0  0  0  0  0  0  0  0  0
  -56.4865   68.1017  348.3719 H   0  0  0  0  0  0  0  0  0  0  0  0
  -56.4443   69.1942  346.2548 H   0  0  0  0  0  0  0  0  0  0  0  0
  -55.8431   67.5924  345.4165 H   0  0  0  0  0  0  0  0  0  0  0  0
  -57.4422   66.7394  343.2990 H   0  0  0  0  0  0  0  0  0  0  0  0
  -56.4476   66.6775  341.8044 H   0  0  0  0  0  0  0  0  0  0  0  0
  -58.1118   66.0014  341.8044 H   0  0  0  0  0  0  0  0  0  0  0  0
  -57.7552   64.2053  340.3968 H   0  0  0  0  0  0  0  0  0  0  0  0
  -56.1406   63.4419  340.0690 H   0  0  0  0  0  0  0  0  0  0  0  0
  -57.9222   61.6239  341.5041 H   0  0  0  0  0  0  0  0  0  0  0  0
  -58.6492   62.1820  339.9591 H   0  0  0  0  0  0  0  0  0  0  0  0
  -57.0352   61.3935  339.9591 H   0  0  0  0  0  0  0  0  0  0  0  0
  -54.9191   61.5539  345.3381 H   0  0  0  0  0  0  0  0  0  0  0  0
  -55.5937   57.0784  342.3978 H   0  0  0  0  0  0  0  0  0  0  0  0
  -56.1708   58.5649  341.5709 H   0  0  0  0  0  0  0  0  0  0  0  0
  -54.4210   58.1590  341.5709 H   0  0  0  0  0  0  0  0  0  0  0  0
  -53.3842   57.2071  347.2840 H   0  0  0  0  0  0  0  0  0  0  0  0
  -57.4809   56.1133  348.8197 H   0  0  0  0  0  0  0  0  0  0  0  0
  -58.6187   56.4520  347.4716 H   0  0  0  0  0  0  0  0  0  0  0  0
  -57.6514   54.9384  347.4716 H   0  0  0  0  0  0  0  0  0  0  0  0
  -53.5493   56.4783  353.7573 H   0  0  0  0  0  0  0  0  0  0  0  0
  -53.4993   55.2453  352.4608 H   0  0  0  0  0  0  0  0  0  0  0  0
  -50.9428   55.5019  354.1481 H   0  0  0  0  0  0  0  0  0  0  0  0
  -54.1918   53.1647  354.9045 H   0  0  0  0  0  0  0  0  0  0  0  0
  -54.1683   54.1341  353.3924 H   0  0  0  0  0  0  0  0  0  0  0  0
  -53.5317   52.4545  353.3924 H   0  0  0  0  0  0  0  0  0  0  0  0
  -51.3902   52.0034  354.6763 H   0  0  0  0  0  0  0  0  0  0  0  0
  -50.4258   53.4905  355.1811 H   0  0  0  0  0  0  0  0  0  0  0  0
  -52.3147   53.7353  356.9660 H   0  0  0  0  0  0  0  0  0  0  0  0
  -52.5295   51.9639  356.6712 H   0  0  0  0  0  0  0  0  0  0  0  0
  -50.9244   51.7503  358.2384 H   0  0  0  0  0  0  0  0  0  0  0  0
  -49.8223   52.1637  356.8366 H   0  0  0  0  0  0  0  0  0  0  0  0
  -49.3389   54.1944  357.6000 H   0  0  0  0  0  0  0  0  0  0  0  0
  -50.0347   53.6869  360.3884 H   0  0  0  0  0  0  0  0  0  0  0  0
  -49.4299   52.1952  359.5910 H   0  0  0  0  0  0  0  0  0  0  0  0
  -48.4251   53.6842  359.5910 H   0  0  0  0  0  0  0  0  0  0  0  0
  -51.4201   55.2696  357.5669 H   0  0  0  0  0  0  0  0  0  0  0  0
  -52.0246   54.2682  358.9683 H   0  0  0  0  0  0  0  0  0  0  0  0
  -51.4243   55.8736  360.3473 H   0  0  0  0  0  0  0  0  0  0  0  0
  -49.6930   55.5985  359.8190 H   0  0  0  0  0  0  0  0  0  0  0  0
  -49.6735   57.7034  359.1527 H   0  0  0  0  0  0  0  0  0  0  0  0
  -50.7897   57.1706  357.8224 H   0  0  0  0  0  0  0  0  0  0  0  0
  -51.8796   57.9089  360.5134 H   0  0  0  0  0  0  0  0  0  0  0  0
  -53.8828   57.8254  359.5024 H   0  0  0  0  0  0  0  0  0  0  0  0
  -53.3190   58.8256  358.1210 H   0  0  0  0  0  0  0  0  0  0  0  0
  -53.0342   57.0521  358.1210 H   0  0  0  0  0  0  0  0  0  0  0  0
  -50.3374   59.7468  359.7112 H   0  0  0  0  0  0  0  0  0  0  0  0
  -51.3977   59.8557  358.2245 H   0  0  0  0  0  0  0  0  0  0  0  0
  -53.1730   60.0555  360.3482 H   0  0  0  0  0  0  0  0  0  0  0  0
  -51.7575   61.0318  360.8673 H   0  0  0  0  0  0  0  0  0  0  0  0
  -52.3437   62.6646  359.4349 H   0  0  0  0  0  0  0  0  0  0  0  0
  -52.2220   61.4890  358.0598 H   0  0  0  0  0  0  0  0  0  0  0  0
  -54.4631   61.2437  357.9037 H   0  0  0  0  0  0  0  0  0  0  0  0
  -54.7934   63.5794  359.7865 H   0  0  0  0  0  0  0  0  0  0  0  0
  -53.9160   63.7858  358.2327 H   0  0  0  0  0  0  0  0  0  0  0  0
  -55.6232   63.2273  358.2327 H   0  0  0  0  0  0  0  0  0  0  0  0
  -54.4607   61.4711  360.9511 H   0  0  0  0  0  0  0  0  0  0  0  0
  -55.9419   61.2218  359.9659 H   0  0  0  0  0  0  0  0  0  0  0  0
  -54.6437   59.9803  359.9659 H   0  0  0  0  0  0  0  0  0  0  0  0
  1  6  1  0
  1 36  2  0
  1 40  1  0
  2  9  2  0
  2 17  1  0
  3 20  1  0
  3 25  2  0
  4 28  1  0
  4 33  2  0
  5  6  2  0
  5  9  1  0
  6  7  1  0
  7  8  1  0
  7 11  1  0
  8  9  1  0
  8 10  1  0
 11 12  1  0
 12 13  1  0
 13 14  2  0
 13 15  1  0
 15 45  1  0
 16 17  1  0
 16 20  1  0
 17 18  2  0
 18 19  1  0
 18 21  1  0
 19 20  2  0
 19 22  1  0
 22 23  2  0
 24 25  1  0
 24 28  2  0
 25 26  1  0
 26 27  2  0
 26 29  1  0
 27 28  1  0
 27 30  1  0
 30 31  1  0
 32 33  1  0
 32 36  1  0
 33 34  1  0
 34 35  2  0
 34 37  1  0
 35 36  1  0
 35 38  1  0
 38 39  2  0
 38 40  1  0
 40 41  1  0
 41 42  2  0
 41 43  1  0
 43 44  1  0
 45 46  1  0
 46 47  2  3
 47 48  1  0
 47 49  1  0
 49 50  1  0
 50 51  1  0
 51 52  1  0
 52 53  1  0
 52 54  1  0
 54 55  1  0
 55 56  1  0
 56 57  1  0
 57 58  1  0
 57 59  1  0
 59 60  1  0
 60 61  1  0
 61 62  1  0
 62 63  1  0
 62 64  1  0
  2 65  1  0
  3 66  1  0
  4 67  1  0
  7 68  1  1
  8 69  1  1
 10 70  1  0
 10 71  1  0
 10 72  1  0
 11 73  1  0
 11 74  1  0
 12 75  1  0
 12 76  1  0
 16 77  1  0
 21 78  1  0
 21 79  1  0
 21 80  1  0
 22 81  1  0
 23 82  1  0
 23 83  1  0
 29 84  1  0
 29 85  1  0
 29 86  1  0
 30 87  1  0
 30 88  1  0
 31 89  1  0
 31 90  1  0
 31 91  1  0
 32 92  1  0
 37 93  1  0
 37 94  1  0
 37 95  1  0
 40 96  1  1
 44 97  1  0
 44 98  1  0
 44 99  1  0
 45100  1  0
 45101  1  0
 46102  1  0
 48103  1  0
 48104  1  0
 48105  1  0
 49106  1  0
 49107  1  0
 50108  1  0
 50109  1  0
 51110  1  0
 51111  1  0
 52112  1  6
 53113  1  0
 53114  1  0
 53115  1  0
 54116  1  0
 54117  1  0
 55118  1  0
 55119  1  0
 56120  1  0
 56121  1  0
 57122  1  1
 58123  1  0
 58124  1  0
 58125  1  0
 59126  1  0
 59127  1  0
 60128  1  0
 60129  1  0
 61130  1  0
 61131  1  0
 62132  1  6
 63133  1  0
 63134  1  0
 63135  1  0
 64136  1  0
 64137  1  0
 64138  1  0
M  END
>  <filename_input>  (15) 
8F4J_PHO_docked.sdf

>  <pdb_id>  (15) 
8F4J_PHO

>  <pose_rank>  (15) 
14

>  <num_atoms_heavy>  (15) 
64

>  <num_torsions>  (15) 
22

>  <pose>  (15) 
[-54.497543068550186, 59.00856431559287, 346.92678976821634, -0.3897181565907865, -1.4018521607543484, -2.9829221915598065, 2.4344708472887677, 1.891459064198303, 0.9464840954432545, 0.13812139068029036, 1.1023526453547339, 1.8544843294015945, 0.2591813965503747, 0.5273771281179263, -4.472447941616244, 5.994761075042312, 3.895787071725871, 0.2319709209392864, 4.541489059297615, -2.628802400382041, -2.268413955213291, 3.1977241452353824, -1.3389363409697628, -0.15014407016293282, 4.617438917668264, 0.7999249159842441, -0.9044658948252796, -0.6608932723548551]

>  <energy>  (15) 
-328.9537612721829

>  <inter_energy>  (15) 
-422.2009834149595

>  <intra_energy>  (15) 
88.6794965290104

>  <rmsd>  (15) 
9.32416

>  <sdf_rank>  (15) 
0

$$$$

     RDKit          3D

138143  0  0  0  0  0  0  0  0999 V2000
  -54.5294   62.0694  358.6014 C   0  0  0  0  0  0  0  0  0  0  0  0
  -58.4453   64.2892  356.8851 C   0  0  0  0  0  0  0  0  0  0  0  0
  -60.8872   60.0201  357.2306 C   0  0  0  0  0  0  0  0  0  0  0  0
  -56.9929   57.7636  359.1612 C   0  0  0  0  0  0  0  0  0  0  0  0
  -56.6575   62.9352  357.8374 N   0  0  0  0  0  0  0  0  0  0  0  0
  -55.2610   63.0671  358.0739 C   0  0  0  0  0  0  0  0  0  0  0  0
  -54.7881   64.4676  357.7542 C   0  0  2  0  0  0  0  0  0  0  0  0
  -56.1308   65.2290  357.5430 C   0  0  1  0  0  0  0  0  0  0  0  0
  -57.1308   64.0819  357.4010 C   0  0  0  0  0  0  0  0  0  0  0  0
  -56.4240   66.0890  358.7388 C   0  0  0  0  0  0  0  0  0  0  0  0
  -53.8890   64.5302  356.5434 C   0  0  0  0  0  0  0  0  0  0  0  0
  -54.5427   63.7760  355.4006 C   0  0  0  0  0  0  0  0  0  0  0  0
  -53.8662   64.1341  354.1178 C   0  0  0  0  0  0  0  0  0  0  0  0
  -53.7600   65.2494  353.6023 O   0  0  0  0  0  0  0  0  0  0  0  0
  -53.3374   63.0547  353.4737 O   0  0  0  0  0  0  0  0  0  0  0  0
  -59.3127   61.9650  357.1279 N   0  0  0  0  0  0  0  0  0  0  0  0
  -59.3906   63.3154  356.7713 C   0  0  0  0  0  0  0  0  0  0  0  0
  -60.7550   63.5329  356.2297 C   0  0  0  0  0  0  0  0  0  0  0  0
  -61.4528   62.3425  356.3240 C   0  0  0  0  0  0  0  0  0  0  0  0
  -60.5415   61.3025  356.9055 C   0  0  0  0  0  0  0  0  0  0  0  0
  -61.1539   64.8679  355.7872 C   0  0  0  0  0  0  0  0  0  0  0  0
  -62.8219   62.0219  356.0153 C   0  0  0  0  0  0  0  0  0  0  0  0
  -63.8523   62.1258  356.8515 C   0  0  0  0  0  0  0  0  0  0  0  0
  -58.7368   59.1132  358.0284 N   0  0  0  0  0  0  0  0  0  0  0  0
  -60.0347   58.9824  357.7599 C   0  0  0  0  0  0  0  0  0  0  0  0
  -60.5176   57.6351  358.2066 C   0  0  0  0  0  0  0  0  0  0  0  0
  -59.4309   57.0210  358.8062 C   0  0  0  0  0  0  0  0  0  0  0  0
  -58.2665   57.9460  358.6846 C   0  0  0  0  0  0  0  0  0  0  0  0
  -61.9001   57.1566  358.1021 C   0  0  0  0  0  0  0  0  0  0  0  0
  -59.3597   55.6844  359.4253 C   0  0  0  0  0  0  0  0  0  0  0  0
  -58.9977   54.6028  358.4132 C   0  0  0  0  0  0  0  0  0  0  0  0
  -56.0906   59.9891  358.4993 N   0  0  0  0  0  0  0  0  0  0  0  0
  -55.9335   58.7168  359.0975 C   0  0  0  0  0  0  0  0  0  0  0  0
  -54.5951   58.6253  359.6294 C   0  0  0  0  0  0  0  0  0  0  0  0
  -54.0061   59.8953  359.4369 C   0  0  0  0  0  0  0  0  0  0  0  0
  -54.9922   60.7233  358.7819 C   0  0  0  0  0  0  0  0  0  0  0  0
  -53.9605   57.4709  360.2720 C   0  0  0  0  0  0  0  0  0  0  0  0
  -52.8165   60.6810  359.6870 C   0  0  0  0  0  0  0  0  0  0  0  0
  -51.7618   60.3552  360.2075 O   0  0  0  0  0  0  0  0  0  0  0  0
  -53.1339   62.1293  359.1951 C   0  0  2  0  0  0  0  0  0  0  0  0
  -53.0234   63.0752  360.3602 C   0  0  0  0  0  0  0  0  0  0  0  0
  -53.5384   62.9896  361.4692 O   0  0  0  0  0  0  0  0  0  0  0  0
  -52.2367   64.1748  360.0871 O   0  0  0  0  0  0  0  0  0  0  0  0
  -50.8506   64.0446  360.3782 C   0  0  0  0  0  0  0  0  0  0  0  0
  -54.1740   62.3851  352.4987 C   0  0  0  0  0  0  0  0  0  0  0  0
  -53.8772   62.9460  351.1538 C   0  0  0  0  0  0  0  0  0  0  0  0
  -54.0590   62.1947  350.0646 C   0  0  0  0  0  0  0  0  0  0  0  0
  -54.5513   60.8159  350.2312 C   0  0  0  0  0  0  0  0  0  0  0  0
  -53.7881   62.6665  348.6676 C   0  0  0  0  0  0  0  0  0  0  0  0
  -54.6306   63.8590  348.1976 C   0  0  0  0  0  0  0  0  0  0  0  0
  -55.6760   63.4244  347.1763 C   0  0  0  0  0  0  0  0  0  0  0  0
  -56.0851   64.5247  346.2018 C   0  0  2  0  0  0  0  0  0  0  0  0
  -57.5676   64.7631  346.2844 C   0  0  0  0  0  0  0  0  0  0  0  0
  -55.6779   64.2266  344.7576 C   0  0  0  0  0  0  0  0  0  0  0  0
  -56.5554   63.1718  344.0882 C   0  0  0  0  0  0  0  0  0  0  0  0
  -55.8488   61.8451  343.8390 C   0  0  0  0  0  0  0  0  0  0  0  0
  -55.9784   61.3874  342.3878 C   0  0  2  0  0  0  0  0  0  0  0  0
  -57.4308   61.2996  341.9258 C   0  0  0  0  0  0  0  0  0  0  0  0
  -55.3281   60.0287  342.2114 C   0  0  0  0  0  0  0  0  0  0  0  0
  -56.3171   58.8852  342.1145 C   0  0  0  0  0  0  0  0  0  0  0  0
  -56.1198   57.9410  343.2975 C   0  0  0  0  0  0  0  0  0  0  0  0
  -54.6743   57.4759  343.4124 C   0  0  2  0  0  0  0  0  0  0  0  0
  -54.5452   56.0488  342.9358 C   0  0  0  0  0  0  0  0  0  0  0  0
  -54.2492   57.5695  344.8567 C   0  0  0  0  0  0  0  0  0  0  0  0
  -58.7131   65.3044  356.5571 H   0  0  0  0  0  0  0  0  0  0  0  0
  -61.9404   59.7466  357.0696 H   0  0  0  0  0  0  0  0  0  0  0  0
  -56.7688   56.7963  359.6345 H   0  0  0  0  0  0  0  0  0  0  0  0
  -54.1574   64.8990  358.5455 H   0  0  0  0  0  0  0  0  0  0  0  0
  -56.1436   65.9133  356.6818 H   0  0  0  0  0  0  0  0  0  0  0  0
  -56.2292   65.5174  359.6582 H   0  0  0  0  0  0  0  0  0  0  0  0
  -55.7787   66.9796  358.7170 H   0  0  0  0  0  0  0  0  0  0  0  0
  -57.4789   66.4000  358.7170 H   0  0  0  0  0  0  0  0  0  0  0  0
  -53.7358   65.5799  356.2522 H   0  0  0  0  0  0  0  0  0  0  0  0
  -52.9162   64.0745  356.7800 H   0  0  0  0  0  0  0  0  0  0  0  0
  -54.4500   62.6939  355.5747 H   0  0  0  0  0  0  0  0  0  0  0  0
  -55.6071   64.0477  355.3427 H   0  0  0  0  0  0  0  0  0  0  0  0
  -58.4680   61.5114  357.5043 H   0  0  0  0  0  0  0  0  0  0  0  0
  -61.3438   65.5035  356.6646 H   0  0  0  0  0  0  0  0  0  0  0  0
  -60.3484   65.3095  355.1820 H   0  0  0  0  0  0  0  0  0  0  0  0
  -62.0695   64.7952  355.1820 H   0  0  0  0  0  0  0  0  0  0  0  0
  -63.0353   61.6591  354.9990 H   0  0  0  0  0  0  0  0  0  0  0  0
  -64.8636   61.8538  356.5147 H   0  0  0  0  0  0  0  0  0  0  0  0
  -63.6926   62.4836  357.8793 H   0  0  0  0  0  0  0  0  0  0  0  0
  -62.3155   57.0128  359.1104 H   0  0  0  0  0  0  0  0  0  0  0  0
  -62.5045   57.8978  357.5587 H   0  0  0  0  0  0  0  0  0  0  0  0
  -61.9170   56.2004  357.5587 H   0  0  0  0  0  0  0  0  0  0  0  0
  -58.5957   55.7001  360.2165 H   0  0  0  0  0  0  0  0  0  0  0  0
  -60.3528   55.4470  359.8346 H   0  0  0  0  0  0  0  0  0  0  0  0
  -58.6921   53.6900  358.9456 H   0  0  0  0  0  0  0  0  0  0  0  0
  -59.8716   54.3840  357.7820 H   0  0  0  0  0  0  0  0  0  0  0  0
  -58.1682   54.9543  357.7820 H   0  0  0  0  0  0  0  0  0  0  0  0
  -56.9007   60.3013  357.9452 H   0  0  0  0  0  0  0  0  0  0  0  0
  -54.0208   57.5805  361.3648 H   0  0  0  0  0  0  0  0  0  0  0  0
  -54.4793   56.5502  359.9667 H   0  0  0  0  0  0  0  0  0  0  0  0
  -52.9052   57.4155  359.9667 H   0  0  0  0  0  0  0  0  0  0  0  0
  -52.4318   62.4984  358.4330 H   0  0  0  0  0  0  0  0  0  0  0  0
  -50.7046   64.0308  361.4684 H   0  0  0  0  0  0  0  0  0  0  0  0
  -50.4716   63.1069  359.9456 H   0  0  0  0  0  0  0  0  0  0  0  0
  -50.3036   64.8953  359.9456 H   0  0  0  0  0  0  0  0  0  0  0  0
  -53.9602   61.3061  352.5057 H   0  0  0  0  0  0  0  0  0  0  0  0
  -55.2350   62.5396  352.7446 H   0  0  0  0  0  0  0  0  0  0  0  0
  -53.5087   63.9778  351.0562 H   0  0  0  0  0  0  0  0  0  0  0  0
  -54.6344   60.5831  351.3030 H   0  0  0  0  0  0  0  0  0  0  0  0
  -55.5393   60.7196  349.7574 H   0  0  0  0  0  0  0  0  0  0  0  0
  -53.8476   60.1156  349.7574 H   0  0  0  0  0  0  0  0  0  0  0  0
  -52.7285   62.9555  348.6071 H   0  0  0  0  0  0  0  0  0  0  0  0
  -54.0578   61.8282  348.0084 H   0  0  0  0  0  0  0  0  0  0  0  0
  -55.1394   64.3036  349.0655 H   0  0  0  0  0  0  0  0  0  0  0  0
  -53.9627   64.5930  347.7230 H   0  0  0  0  0  0  0  0  0  0  0  0
  -55.2656   62.5841  346.5971 H   0  0  0  0  0  0  0  0  0  0  0  0
  -56.5782   63.1477  347.7417 H   0  0  0  0  0  0  0  0  0  0  0  0
  -55.5433   65.4337  346.5023 H   0  0  0  0  0  0  0  0  0  0  0  0
  -57.8729   64.8122  347.3400 H   0  0  0  0  0  0  0  0  0  0  0  0
  -57.8146   65.7125  345.7867 H   0  0  0  0  0  0  0  0  0  0  0  0
  -58.0998   63.9390  345.7867 H   0  0  0  0  0  0  0  0  0  0  0  0
  -55.7465   65.1579  344.1762 H   0  0  0  0  0  0  0  0  0  0  0  0
  -54.6528   63.8286  344.7837 H   0  0  0  0  0  0  0  0  0  0  0  0
  -57.4252   62.9843  344.7349 H   0  0  0  0  0  0  0  0  0  0  0  0
  -56.8383   63.5717  343.1032 H   0  0  0  0  0  0  0  0  0  0  0  0
  -54.7818   61.9610  344.0801 H   0  0  0  0  0  0  0  0  0  0  0  0
  -56.3225   61.0845  344.4771 H   0  0  0  0  0  0  0  0  0  0  0  0
  -55.4713   62.1449  341.7722 H   0  0  0  0  0  0  0  0  0  0  0  0
  -58.0929   61.2595  342.8033 H   0  0  0  0  0  0  0  0  0  0  0  0
  -57.6772   62.1845  341.3206 H   0  0  0  0  0  0  0  0  0  0  0  0
  -57.5688   60.3915  341.3206 H   0  0  0  0  0  0  0  0  0  0  0  0
  -54.7290   60.0482  341.2890 H   0  0  0  0  0  0  0  0  0  0  0  0
  -54.7160   59.8478  343.1073 H   0  0  0  0  0  0  0  0  0  0  0  0
  -57.3420   59.2843  342.1308 H   0  0  0  0  0  0  0  0  0  0  0  0
  -56.1526   58.3363  341.1756 H   0  0  0  0  0  0  0  0  0  0  0  0
  -56.4000   58.4656  344.2229 H   0  0  0  0  0  0  0  0  0  0  0  0
  -56.7531   57.0557  343.1388 H   0  0  0  0  0  0  0  0  0  0  0  0
  -54.0320   58.1135  342.7871 H   0  0  0  0  0  0  0  0  0  0  0  0
  -54.4844   55.3764  343.8042 H   0  0  0  0  0  0  0  0  0  0  0  0
  -55.4231   55.7844  342.3281 H   0  0  0  0  0  0  0  0  0  0  0  0
  -53.6341   55.9462  342.3281 H   0  0  0  0  0  0  0  0  0  0  0  0
  -55.1156   57.3788  345.5071 H   0  0  0  0  0  0  0  0  0  0  0  0
  -53.4679   56.8218  345.0582 H   0  0  0  0  0  0  0  0  0  0  0  0
  -53.8541   58.5761  345.0582 H   0  0  0  0  0  0  0  0  0  0  0  0
  1  6  1  0
  1 36  2  0
  1 40  1  0
  2  9  2  0
  2 17  1  0
  3 20  1  0
  3 25  2  0
  4 28  1  0
  4 33  2  0
  5  6  2  0
  5  9  1  0
  6  7  1  0
  7  8  1  0
  7 11  1  0
  8  9  1  0
  8 10  1  0
 11 12  1  0
 12 13  1  0
 13 14  2  0
 13 15  1  0
 15 45  1  0
 16 17  1  0
 16 20  1  0
 17 18  2  0
 18 19  1  0
 18 21  1  0
 19 20  2  0
 19 22  1  0
 22 23  2  0
 24 25  1  0
 24 28  2  0
 25 26  1  0
 26 27  2  0
 26 29  1  0
 27 28  1  0
 27 30  1  0
 30 31  1  0
 32 33  1  0
 32 36  1  0
 33 34  1  0
 34 35  2  0
 34 37  1  0
 35 36  1  0
 35 38  1  0
 38 39  2  0
 38 40  1  0
 40 41  1  0
 41 42  2  0
 41 43  1  0
 43 44  1  0
 45 46  1  0
 46 47  2  3
 47 48  1  0
 47 49  1  0
 49 50  1  0
 50 51  1  0
 51 52  1  0
 52 53  1  0
 52 54  1  0
 54 55  1  0
 55 56  1  0
 56 57  1  0
 57 58  1  0
 57 59  1  0
 59 60  1  0
 60 61  1  0
 61 62  1  0
 62 63  1  0
 62 64  1  0
  2 65  1  0
  3 66  1  0
  4 67  1  0
  7 68  1  1
  8 69  1  6
 10 70  1  0
 10 71  1  0
 10 72  1  0
 11 73  1  0
 11 74  1  0
 12 75  1  0
 12 76  1  0
 16 77  1  0
 21 78  1  0
 21 79  1  0
 21 80  1  0
 22 81  1  0
 23 82  1  0
 23 83  1  0
 29 84  1  0
 29 85  1  0
 29 86  1  0
 30 87  1  0
 30 88  1  0
 31 89  1  0
 31 90  1  0
 31 91  1  0
 32 92  1  0
 37 93  1  0
 37 94  1  0
 37 95  1  0
 40 96  1  6
 44 97  1  0
 44 98  1  0
 44 99  1  0
 45100  1  0
 45101  1  0
 46102  1  0
 48103  1  0
 48104  1  0
 48105  1  0
 49106  1  0
 49107  1  0
 50108  1  0
 50109  1  0
 51110  1  0
 51111  1  0
 52112  1  1
 53113  1  0
 53114  1  0
 53115  1  0
 54116  1  0
 54117  1  0
 55118  1  0
 55119  1  0
 56120  1  0
 56121  1  0
 57122  1  6
 58123  1  0
 58124  1  0
 58125  1  0
 59126  1  0
 59127  1  0
 60128  1  0
 60129  1  0
 61130  1  0
 61131  1  0
 62132  1  6
 63133  1  0
 63134  1  0
 63135  1  0
 64136  1  0
 64137  1  0
 64138  1  0
M  END
>  <filename_input>  (16) 
8F4J_PHO_docked.sdf

>  <pdb_id>  (16) 
8F4J_PHO

>  <pose_rank>  (16) 
15

>  <num_atoms_heavy>  (16) 
64

>  <num_torsions>  (16) 
22

>  <pose>  (16) 
[-54.529426675064336, 62.06942333925528, 358.60135189840184, 0.7791873531471815, 3.65853429353998, 0.9179281143077078, -1.945422292270025, -0.3564109230949039, 3.8620534750492816, 1.69862446714817, -2.169715718351528, -0.35948009436231365, -1.2964593084913436, -1.8105514927012027, 0.237185507307452, -1.2301599089994104, 0.9096365230118147, 1.0133713016051435, 0.1523315159920198, -1.1128918051080756, 2.388183571066758, -0.7577939126592687, 0.8003926322550272, 0.30105183420734266, 3.126543298659357, 1.0349519541574435, 2.334602559480626, 1.3360923196995977]

>  <energy>  (16) 
-361.6927449092337

>  <inter_energy>  (16) 
-383.8415385270279

>  <intra_energy>  (16) 
16.01006513546508

>  <rmsd>  (16) 
13.5759

>  <sdf_rank>  (16) 
0

$$$$

     RDKit          3D

138143  0  0  0  0  0  0  0  0999 V2000
  -55.4366   63.3689  344.9799 C   0  0  0  0  0  0  0  0  0  0  0  0
  -54.5647   59.4631  347.6615 C   0  0  0  0  0  0  0  0  0  0  0  0
  -53.6086   62.4293  351.4818 C   0  0  0  0  0  0  0  0  0  0  0  0
  -54.6732   66.4228  348.8546 C   0  0  0  0  0  0  0  0  0  0  0  0
  -55.0173   61.5964  346.5748 N   0  0  0  0  0  0  0  0  0  0  0  0
  -55.2584   62.0642  345.2533 C   0  0  0  0  0  0  0  0  0  0  0  0
  -55.3817   60.9093  344.2847 C   0  0  2  0  0  0  0  0  0  0  0  0
  -55.4414   59.6813  345.2415 C   0  0  1  0  0  0  0  0  0  0  0  0
  -54.9673   60.2823  346.5643 C   0  0  0  0  0  0  0  0  0  0  0  0
  -56.8502   59.1681  345.3269 C   0  0  0  0  0  0  0  0  0  0  0  0
  -54.2348   60.8278  343.3068 C   0  0  0  0  0  0  0  0  0  0  0  0
  -54.7611   61.0665  341.9039 C   0  0  0  0  0  0  0  0  0  0  0  0
  -55.8992   60.1368  341.6354 C   0  0  0  0  0  0  0  0  0  0  0  0
  -57.0897   60.4200  341.4832 O   0  0  0  0  0  0  0  0  0  0  0  0
  -55.5184   58.8285  341.5816 O   0  0  0  0  0  0  0  0  0  0  0  0
  -54.0880   61.2642  349.3173 N   0  0  0  0  0  0  0  0  0  0  0  0
  -54.1704   59.9398  348.8748 C   0  0  0  0  0  0  0  0  0  0  0  0
  -53.7474   59.0856  350.0121 C   0  0  0  0  0  0  0  0  0  0  0  0
  -53.4790   59.9059  351.0930 C   0  0  0  0  0  0  0  0  0  0  0  0
  -53.6923   61.3300  350.6729 C   0  0  0  0  0  0  0  0  0  0  0  0
  -53.7489   57.6312  349.8650 C   0  0  0  0  0  0  0  0  0  0  0  0
  -53.1101   59.5931  352.4489 C   0  0  0  0  0  0  0  0  0  0  0  0
  -52.0875   58.8258  352.8192 C   0  0  0  0  0  0  0  0  0  0  0  0
  -54.0470   64.2563  349.8841 N   0  0  0  0  0  0  0  0  0  0  0  0
  -53.7740   63.8144  351.1104 C   0  0  0  0  0  0  0  0  0  0  0  0
  -53.7881   64.9561  352.0821 C   0  0  0  0  0  0  0  0  0  0  0  0
  -54.1479   66.0748  351.3494 C   0  0  0  0  0  0  0  0  0  0  0  0
  -54.2994   65.6523  349.9265 C   0  0  0  0  0  0  0  0  0  0  0  0
  -53.5643   64.8379  353.5267 C   0  0  0  0  0  0  0  0  0  0  0  0
  -54.3194   67.4620  351.8193 C   0  0  0  0  0  0  0  0  0  0  0  0
  -53.2660   68.3984  351.2373 C   0  0  0  0  0  0  0  0  0  0  0  0
  -54.7204   64.5978  347.1598 N   0  0  0  0  0  0  0  0  0  0  0  0
  -54.8904   65.9538  347.5250 C   0  0  0  0  0  0  0  0  0  0  0  0
  -55.3439   66.6845  346.3660 C   0  0  0  0  0  0  0  0  0  0  0  0
  -55.5455   65.7250  345.3484 C   0  0  0  0  0  0  0  0  0  0  0  0
  -55.1979   64.4385  345.9060 C   0  0  0  0  0  0  0  0  0  0  0  0
  -55.5845   68.1257  346.2498 C   0  0  0  0  0  0  0  0  0  0  0  0
  -56.0065   65.5444  343.9884 C   0  0  0  0  0  0  0  0  0  0  0  0
  -56.3814   66.3737  343.1752 O   0  0  0  0  0  0  0  0  0  0  0  0
  -55.9950   64.0054  343.7202 C   0  0  2  0  0  0  0  0  0  0  0  0
  -57.3943   63.5562  343.3969 C   0  0  0  0  0  0  0  0  0  0  0  0
  -57.8970   63.3425  342.2997 O   0  0  0  0  0  0  0  0  0  0  0  0
  -58.1781   63.3896  344.5196 O   0  0  0  0  0  0  0  0  0  0  0  0
  -59.0569   64.4616  344.8382 C   0  0  0  0  0  0  0  0  0  0  0  0
  -56.5649   57.8348  341.4540 C   0  0  0  0  0  0  0  0  0  0  0  0
  -56.0675   56.7299  340.5919 C   0  0  0  0  0  0  0  0  0  0  0  0
  -56.2059   56.8068  339.2657 C   0  0  0  0  0  0  0  0  0  0  0  0
  -56.8571   57.9971  338.6909 C   0  0  0  0  0  0  0  0  0  0  0  0
  -55.7399   55.7474  338.3127 C   0  0  0  0  0  0  0  0  0  0  0  0
  -56.4039   55.7636  336.9301 C   0  0  0  0  0  0  0  0  0  0  0  0
  -57.3949   54.6141  336.7832 C   0  0  0  0  0  0  0  0  0  0  0  0
  -58.6088   54.9491  335.9219 C   0  0  2  0  0  0  0  0  0  0  0  0
  -58.8040   56.4389  335.8612 C   0  0  0  0  0  0  0  0  0  0  0  0
  -59.8909   54.2679  336.4044 C   0  0  0  0  0  0  0  0  0  0  0  0
  -60.2895   54.6665  337.8232 C   0  0  0  0  0  0  0  0  0  0  0  0
  -61.7935   54.6669  338.0674 C   0  0  0  0  0  0  0  0  0  0  0  0
  -62.1351   54.6645  339.5559 C   0  0  2  0  0  0  0  0  0  0  0  0
  -62.4939   53.2746  340.0754 C   0  0  0  0  0  0  0  0  0  0  0  0
  -63.2984   55.6000  339.8235 C   0  0  0  0  0  0  0  0  0  0  0  0
  -63.7729   55.5898  341.2623 C   0  0  0  0  0  0  0  0  0  0  0  0
  -63.0201   56.6564  342.0533 C   0  0  0  0  0  0  0  0  0  0  0  0
  -63.7202   56.9840  343.3653 C   0  0  2  0  0  0  0  0  0  0  0  0
  -64.4321   58.3116  343.2603 C   0  0  0  0  0  0  0  0  0  0  0  0
  -62.6868   57.0473  344.4625 C   0  0  0  0  0  0  0  0  0  0  0  0
  -54.5733   58.3726  347.5173 H   0  0  0  0  0  0  0  0  0  0  0  0
  -53.3891   62.2350  352.5421 H   0  0  0  0  0  0  0  0  0  0  0  0
  -54.8184   67.4979  349.0367 H   0  0  0  0  0  0  0  0  0  0  0  0
  -56.2567   60.9950  343.6235 H   0  0  0  0  0  0  0  0  0  0  0  0
  -54.8360   58.8191  344.9250 H   0  0  0  0  0  0  0  0  0  0  0  0
  -57.1388   59.0630  346.3831 H   0  0  0  0  0  0  0  0  0  0  0  0
  -57.5293   59.8766  344.8300 H   0  0  0  0  0  0  0  0  0  0  0  0
  -56.9146   58.1888  344.8300 H   0  0  0  0  0  0  0  0  0  0  0  0
  -53.4847   61.5934  343.5541 H   0  0  0  0  0  0  0  0  0  0  0  0
  -53.7690   59.8329  343.3638 H   0  0  0  0  0  0  0  0  0  0  0  0
  -55.1081   62.1065  341.8143 H   0  0  0  0  0  0  0  0  0  0  0  0
  -53.9582   60.8843  341.1746 H   0  0  0  0  0  0  0  0  0  0  0  0
  -54.2899   62.0863  348.7305 H   0  0  0  0  0  0  0  0  0  0  0  0
  -53.7494   57.1620  350.8599 H   0  0  0  0  0  0  0  0  0  0  0  0
  -54.6473   57.3195  349.3121 H   0  0  0  0  0  0  0  0  0  0  0  0
  -52.8511   57.3177  349.3121 H   0  0  0  0  0  0  0  0  0  0  0  0
  -53.7277   60.0264  353.2495 H   0  0  0  0  0  0  0  0  0  0  0  0
  -51.8909   58.6490  353.8869 H   0  0  0  0  0  0  0  0  0  0  0  0
  -51.4390   58.3685  352.0574 H   0  0  0  0  0  0  0  0  0  0  0  0
  -54.4117   65.2853  354.0668 H   0  0  0  0  0  0  0  0  0  0  0  0
  -53.4761   63.7756  353.7984 H   0  0  0  0  0  0  0  0  0  0  0  0
  -52.6373   65.3640  353.7984 H   0  0  0  0  0  0  0  0  0  0  0  0
  -55.3158   67.8180  351.5183 H   0  0  0  0  0  0  0  0  0  0  0  0
  -54.2087   67.4655  352.9137 H   0  0  0  0  0  0  0  0  0  0  0  0
  -52.7168   68.8865  352.0559 H   0  0  0  0  0  0  0  0  0  0  0  0
  -52.5639   67.8207  350.6181 H   0  0  0  0  0  0  0  0  0  0  0  0
  -53.7572   69.1633  350.6181 H   0  0  0  0  0  0  0  0  0  0  0  0
  -54.3050   63.8606  347.7472 H   0  0  0  0  0  0  0  0  0  0  0  0
  -55.6582   68.5673  347.2546 H   0  0  0  0  0  0  0  0  0  0  0  0
  -54.7520   68.5935  345.7038 H   0  0  0  0  0  0  0  0  0  0  0  0
  -56.5238   68.2978  345.7038 H   0  0  0  0  0  0  0  0  0  0  0  0
  -55.3732   63.7136  342.8611 H   0  0  0  0  0  0  0  0  0  0  0  0
  -59.1361   64.5583  345.9311 H   0  0  0  0  0  0  0  0  0  0  0  0
  -58.6624   65.3972  344.4150 H   0  0  0  0  0  0  0  0  0  0  0  0
  -60.0517   64.2585  344.4150 H   0  0  0  0  0  0  0  0  0  0  0  0
  -56.8252   57.4411  342.4476 H   0  0  0  0  0  0  0  0  0  0  0  0
  -57.4607   58.2881  341.0045 H   0  0  0  0  0  0  0  0  0  0  0  0
  -55.5866   55.8508  341.0456 H   0  0  0  0  0  0  0  0  0  0  0  0
  -57.2133   58.6482  339.5028 H   0  0  0  0  0  0  0  0  0  0  0  0
  -56.1341   58.5469  338.0704 H   0  0  0  0  0  0  0  0  0  0  0  0
  -57.7099   57.6847  338.0704 H   0  0  0  0  0  0  0  0  0  0  0  0
  -54.6565   55.8731  338.1697 H   0  0  0  0  0  0  0  0  0  0  0  0
  -56.0187   54.7866  338.7700 H   0  0  0  0  0  0  0  0  0  0  0  0
  -56.9373   56.7167  336.7989 H   0  0  0  0  0  0  0  0  0  0  0  0
  -55.6213   55.6499  336.1655 H   0  0  0  0  0  0  0  0  0  0  0  0
  -56.8709   53.7617  336.3263 H   0  0  0  0  0  0  0  0  0  0  0  0
  -57.7720   54.3877  337.7914 H   0  0  0  0  0  0  0  0  0  0  0  0
  -58.4023   54.5580  334.9148 H   0  0  0  0  0  0  0  0  0  0  0  0
  -58.8571   56.8437  336.8826 H   0  0  0  0  0  0  0  0  0  0  0  0
  -57.9584   56.8981  335.3282 H   0  0  0  0  0  0  0  0  0  0  0  0
  -59.7394   56.6647  335.3282 H   0  0  0  0  0  0  0  0  0  0  0  0
  -60.7093   54.5410  335.7221 H   0  0  0  0  0  0  0  0  0  0  0  0
  -59.7012   53.1844  336.4116 H   0  0  0  0  0  0  0  0  0  0  0  0
  -59.8253   53.9579  338.5249 H   0  0  0  0  0  0  0  0  0  0  0  0
  -59.9426   55.6996  337.9729 H   0  0  0  0  0  0  0  0  0  0  0  0
  -62.2274   55.5660  337.6056 H   0  0  0  0  0  0  0  0  0  0  0  0
  -62.2084   53.7497  337.6238 H   0  0  0  0  0  0  0  0  0  0  0  0
  -61.2329   55.0031  340.0865 H   0  0  0  0  0  0  0  0  0  0  0  0
  -62.4919   53.2825  341.1753 H   0  0  0  0  0  0  0  0  0  0  0  0
  -63.4938   52.9945  339.7125 H   0  0  0  0  0  0  0  0  0  0  0  0
  -61.7546   52.5454  339.7125 H   0  0  0  0  0  0  0  0  0  0  0  0
  -62.9861   56.6235  339.5686 H   0  0  0  0  0  0  0  0  0  0  0  0
  -64.1391   55.2503  339.2065 H   0  0  0  0  0  0  0  0  0  0  0  0
  -64.8516   55.8026  341.2943 H   0  0  0  0  0  0  0  0  0  0  0  0
  -63.5812   54.6012  341.7049 H   0  0  0  0  0  0  0  0  0  0  0  0
  -62.0067   56.2889  342.2722 H   0  0  0  0  0  0  0  0  0  0  0  0
  -62.9847   57.5726  341.4456 H   0  0  0  0  0  0  0  0  0  0  0  0
  -64.4633   56.2048  343.5903 H   0  0  0  0  0  0  0  0  0  0  0  0
  -64.6390   58.6975  344.2694 H   0  0  0  0  0  0  0  0  0  0  0  0
  -63.7964   59.0266  342.7175 H   0  0  0  0  0  0  0  0  0  0  0  0
  -65.3794   58.1777  342.7175 H   0  0  0  0  0  0  0  0  0  0  0  0
  -63.1886   57.0165  345.4409 H   0  0  0  0  0  0  0  0  0  0  0  0
  -62.0043   56.1892  344.3733 H   0  0  0  0  0  0  0  0  0  0  0  0
  -62.1141   57.9821  344.3733 H   0  0  0  0  0  0  0  0  0  0  0  0
  1  6  1  0
  1 36  2  0
  1 40  1  0
  2  9  2  0
  2 17  1  0
  3 20  1  0
  3 25  2  0
  4 28  1  0
  4 33  2  0
  5  6  2  0
  5  9  1  0
  6  7  1  0
  7  8  1  0
  7 11  1  0
  8  9  1  0
  8 10  1  0
 11 12  1  0
 12 13  1  0
 13 14  2  0
 13 15  1  0
 15 45  1  0
 16 17  1  0
 16 20  1  0
 17 18  2  0
 18 19  1  0
 18 21  1  0
 19 20  2  0
 19 22  1  0
 22 23  2  0
 24 25  1  0
 24 28  2  0
 25 26  1  0
 26 27  2  0
 26 29  1  0
 27 28  1  0
 27 30  1  0
 30 31  1  0
 32 33  1  0
 32 36  1  0
 33 34  1  0
 34 35  2  0
 34 37  1  0
 35 36  1  0
 35 38  1  0
 38 39  2  0
 38 40  1  0
 40 41  1  0
 41 42  2  0
 41 43  1  0
 43 44  1  0
 45 46  1  0
 46 47  2  3
 47 48  1  0
 47 49  1  0
 49 50  1  0
 50 51  1  0
 51 52  1  0
 52 53  1  0
 52 54  1  0
 54 55  1  0
 55 56  1  0
 56 57  1  0
 57 58  1  0
 57 59  1  0
 59 60  1  0
 60 61  1  0
 61 62  1  0
 62 63  1  0
 62 64  1  0
  2 65  1  0
  3 66  1  0
  4 67  1  0
  7 68  1  6
  8 69  1  6
 10 70  1  0
 10 71  1  0
 10 72  1  0
 11 73  1  0
 11 74  1  0
 12 75  1  0
 12 76  1  0
 16 77  1  0
 21 78  1  0
 21 79  1  0
 21 80  1  0
 22 81  1  0
 23 82  1  0
 23 83  1  0
 29 84  1  0
 29 85  1  0
 29 86  1  0
 30 87  1  0
 30 88  1  0
 31 89  1  0
 31 90  1  0
 31 91  1  0
 32 92  1  0
 37 93  1  0
 37 94  1  0
 37 95  1  0
 40 96  1  6
 44 97  1  0
 44 98  1  0
 44 99  1  0
 45100  1  0
 45101  1  0
 46102  1  0
 48103  1  0
 48104  1  0
 48105  1  0
 49106  1  0
 49107  1  0
 50108  1  0
 50109  1  0
 51110  1  0
 51111  1  0
 52112  1  6
 53113  1  0
 53114  1  0
 53115  1  0
 54116  1  0
 54117  1  0
 55118  1  0
 55119  1  0
 56120  1  0
 56121  1  0
 57122  1  1
 58123  1  0
 58124  1  0
 58125  1  0
 59126  1  0
 59127  1  0
 60128  1  0
 60129  1  0
 61130  1  0
 61131  1  0
 62132  1  1
 63133  1  0
 63134  1  0
 63135  1  0
 64136  1  0
 64137  1  0
 64138  1  0
M  END
>  <filename_input>  (17) 
8F4J_PHO_docked.sdf

>  <pdb_id>  (17) 
8F4J_PHO

>  <pose_rank>  (17) 
16

>  <num_atoms_heavy>  (17) 
64

>  <num_torsions>  (17) 
22

>  <pose>  (17) 
[-55.43663630588928, 63.36892173588353, 344.97990597984267, -1.1695935475623023, 1.6933773322614132, -2.6189870576548335, 0.5402844948281315, 0.07454553317512551, 0.19784532147173978, -1.2859822716075813, -5.045436416888364, 2.124996843698311, -4.581335370319025, -0.37193931560411597, -5.170880857706409, 0.8659187226120227, 4.76754559364659, 1.036425002765815, -0.9124066505187053, 0.6395067342733537, 2.1378411143779883, 3.7565231873901634, -0.401209249806446, -0.47106565153376057, -1.8966617931903398, -1.6326945894001128, -0.16513350209947758, 1.3424037994996667]

>  <energy>  (17) 
-372.9483408280636

>  <inter_energy>  (17) 
-390.0090863037488

>  <intra_energy>  (17) 
25.297830913055694

>  <rmsd>  (17) 
12.4889

>  <sdf_rank>  (17) 
0

$$$$

     RDKit          3D

138143  0  0  0  0  0  0  0  0999 V2000
  -53.7281   61.0567  348.6942 C   0  0  0  0  0  0  0  0  0  0  0  0
  -56.5052   63.3823  345.5183 C   0  0  0  0  0  0  0  0  0  0  0  0
  -56.3893   59.3779  342.6444 C   0  0  0  0  0  0  0  0  0  0  0  0
  -53.7290   56.9016  345.9269 C   0  0  0  0  0  0  0  0  0  0  0  0
  -55.1723   61.9461  346.9665 N   0  0  0  0  0  0  0  0  0  0  0  0
  -54.4036   62.0872  348.1550 C   0  0  0  0  0  0  0  0  0  0  0  0
  -54.5530   63.4762  348.7342 C   0  0  2  0  0  0  0  0  0  0  0  0
  -55.7150   64.0663  347.8806 C   0  0  1  0  0  0  0  0  0  0  0  0
  -55.7901   63.0796  346.7158 C   0  0  0  0  0  0  0  0  0  0  0  0
  -56.9820   64.0861  348.6867 C   0  0  0  0  0  0  0  0  0  0  0  0
  -53.2903   64.2981  348.6424 C   0  0  0  0  0  0  0  0  0  0  0  0
  -52.8995   64.4458  347.1838 C   0  0  0  0  0  0  0  0  0  0  0  0
  -52.7974   65.8962  346.8413 C   0  0  0  0  0  0  0  0  0  0  0  0
  -52.3369   66.4022  345.8153 O   0  0  0  0  0  0  0  0  0  0  0  0
  -53.2684   66.7120  347.8273 O   0  0  0  0  0  0  0  0  0  0  0  0
  -56.1544   61.2258  344.3185 N   0  0  0  0  0  0  0  0  0  0  0  0
  -56.6391   62.5298  344.4647 C   0  0  0  0  0  0  0  0  0  0  0  0
  -57.3790   62.8493  343.2187 C   0  0  0  0  0  0  0  0  0  0  0  0
  -57.3572   61.7318  342.4039 C   0  0  0  0  0  0  0  0  0  0  0  0
  -56.5682   60.6576  343.0920 C   0  0  0  0  0  0  0  0  0  0  0  0
  -58.0299   64.1505  343.0766 C   0  0  0  0  0  0  0  0  0  0  0  0
  -57.9791   61.4776  341.1306 C   0  0  0  0  0  0  0  0  0  0  0  0
  -57.3407   61.2307  339.9890 C   0  0  0  0  0  0  0  0  0  0  0  0
  -54.9293   58.4386  344.3963 N   0  0  0  0  0  0  0  0  0  0  0  0
  -55.6128   58.3274  343.2587 C   0  0  0  0  0  0  0  0  0  0  0  0
  -55.5658   56.9115  342.7682 C   0  0  0  0  0  0  0  0  0  0  0  0
  -54.8645   56.1998  343.7271 C   0  0  0  0  0  0  0  0  0  0  0  0
  -54.4261   57.1668  344.7754 C   0  0  0  0  0  0  0  0  0  0  0  0
  -56.2367   56.4128  341.5631 C   0  0  0  0  0  0  0  0  0  0  0  0
  -54.5367   54.7621  343.7441 C   0  0  0  0  0  0  0  0  0  0  0  0
  -53.2137   54.4845  344.4498 C   0  0  0  0  0  0  0  0  0  0  0  0
  -53.7770   59.2111  346.8594 N   0  0  0  0  0  0  0  0  0  0  0  0
  -53.4083   57.8480  346.9450 C   0  0  0  0  0  0  0  0  0  0  0  0
  -52.7396   57.6351  348.2061 C   0  0  0  0  0  0  0  0  0  0  0  0
  -52.8188   58.8597  348.9067 C   0  0  0  0  0  0  0  0  0  0  0  0
  -53.5198   59.7903  348.0526 C   0  0  0  0  0  0  0  0  0  0  0  0
  -52.1218   56.4005  348.6983 C   0  0  0  0  0  0  0  0  0  0  0  0
  -52.5048   59.5100  350.1610 C   0  0  0  0  0  0  0  0  0  0  0  0
  -51.9160   59.0766  351.1382 O   0  0  0  0  0  0  0  0  0  0  0  0
  -53.1250   60.9416  350.0822 C   0  0  2  0  0  0  0  0  0  0  0  0
  -54.1370   61.0961  351.1851 C   0  0  0  0  0  0  0  0  0  0  0  0
  -55.1180   61.8297  351.2286 O   0  0  0  0  0  0  0  0  0  0  0  0
  -53.8723   60.2919  352.2740 O   0  0  0  0  0  0  0  0  0  0  0  0
  -55.0033   59.7972  352.9805 C   0  0  0  0  0  0  0  0  0  0  0  0
  -54.1190   67.8153  347.4295 C   0  0  0  0  0  0  0  0  0  0  0  0
  -55.0466   67.3407  346.3685 C   0  0  0  0  0  0  0  0  0  0  0  0
  -56.3343   67.1322  346.6549 C   0  0  0  0  0  0  0  0  0  0  0  0
  -56.8014   67.3793  348.0304 C   0  0  0  0  0  0  0  0  0  0  0  0
  -57.3468   66.6540  345.6579 C   0  0  0  0  0  0  0  0  0  0  0  0
  -57.6920   67.6449  344.5391 C   0  0  0  0  0  0  0  0  0  0  0  0
  -56.7349   67.4984  343.3612 C   0  0  0  0  0  0  0  0  0  0  0  0
  -57.2591   68.0962  342.0591 C   0  0  2  0  0  0  0  0  0  0  0  0
  -57.2015   67.0714  340.9600 C   0  0  0  0  0  0  0  0  0  0  0  0
  -56.5118   69.3633  341.6390 C   0  0  0  0  0  0  0  0  0  0  0  0
  -57.3678   70.3256  340.8191 C   0  0  0  0  0  0  0  0  0  0  0  0
  -56.5631   71.2822  339.9479 C   0  0  0  0  0  0  0  0  0  0  0  0
  -57.4357   72.3764  339.3366 C   0  0  2  0  0  0  0  0  0  0  0  0
  -58.0973   73.2596  340.3915 C   0  0  0  0  0  0  0  0  0  0  0  0
  -58.5168   71.7567  338.4723 C   0  0  0  0  0  0  0  0  0  0  0  0
  -57.9813   70.9679  337.2949 C   0  0  0  0  0  0  0  0  0  0  0  0
  -59.1153   70.6896  336.3117 C   0  0  0  0  0  0  0  0  0  0  0  0
  -59.3942   69.1983  336.1806 C   0  0  2  0  0  0  0  0  0  0  0  0
  -60.4622   68.7784  337.1622 C   0  0  0  0  0  0  0  0  0  0  0  0
  -58.1201   68.4412  336.4616 C   0  0  0  0  0  0  0  0  0  0  0  0
  -56.9804   64.3714  345.4411 H   0  0  0  0  0  0  0  0  0  0  0  0
  -56.8976   59.1181  341.7042 H   0  0  0  0  0  0  0  0  0  0  0  0
  -53.3869   55.8672  346.0786 H   0  0  0  0  0  0  0  0  0  0  0  0
  -54.7593   63.4710  349.8147 H   0  0  0  0  0  0  0  0  0  0  0  0
  -55.5641   65.1044  347.5495 H   0  0  0  0  0  0  0  0  0  0  0  0
  -56.7348   64.0823  349.7585 H   0  0  0  0  0  0  0  0  0  0  0  0
  -57.5556   64.9933  348.4459 H   0  0  0  0  0  0  0  0  0  0  0  0
  -57.5837   63.1973  348.4459 H   0  0  0  0  0  0  0  0  0  0  0  0
  -53.4652   65.2923  349.0795 H   0  0  0  0  0  0  0  0  0  0  0  0
  -52.4811   63.7974  349.1942 H   0  0  0  0  0  0  0  0  0  0  0  0
  -51.9278   63.9593  347.0133 H   0  0  0  0  0  0  0  0  0  0  0  0
  -53.6627   63.9715  346.5494 H   0  0  0  0  0  0  0  0  0  0  0  0
  -55.5705   60.7416  345.0154 H   0  0  0  0  0  0  0  0  0  0  0  0
  -58.2382   64.5670  344.0732 H   0  0  0  0  0  0  0  0  0  0  0  0
  -57.3673   64.8336  342.5249 H   0  0  0  0  0  0  0  0  0  0  0  0
  -58.9739   64.0301  342.5249 H   0  0  0  0  0  0  0  0  0  0  0  0
  -59.0785   61.4883  341.0983 H   0  0  0  0  0  0  0  0  0  0  0  0
  -57.9127   61.0486  339.0672 H   0  0  0  0  0  0  0  0  0  0  0  0
  -56.2411   61.2088  339.9674 H   0  0  0  0  0  0  0  0  0  0  0  0
  -57.0883   55.7797  341.8529 H   0  0  0  0  0  0  0  0  0  0  0  0
  -56.5983   57.2631  340.9663 H   0  0  0  0  0  0  0  0  0  0  0  0
  -55.5267   55.8215  340.9663 H   0  0  0  0  0  0  0  0  0  0  0  0
  -55.3387   54.2215  344.2682 H   0  0  0  0  0  0  0  0  0  0  0  0
  -54.4426   54.4234  342.7018 H   0  0  0  0  0  0  0  0  0  0  0  0
  -53.3654   54.5163  345.5389 H   0  0  0  0  0  0  0  0  0  0  0  0
  -52.8452   53.4895  344.1599 H   0  0  0  0  0  0  0  0  0  0  0  0
  -52.4764   55.2475  344.1599 H   0  0  0  0  0  0  0  0  0  0  0  0
  -54.1724   59.6800  346.0320 H   0  0  0  0  0  0  0  0  0  0  0  0
  -52.1231   56.4031  349.7983 H   0  0  0  0  0  0  0  0  0  0  0  0
  -52.6924   55.5339  348.3330 H   0  0  0  0  0  0  0  0  0  0  0  0
  -51.0861   56.3378  348.3330 H   0  0  0  0  0  0  0  0  0  0  0  0
  -52.3901   61.7475  350.2255 H   0  0  0  0  0  0  0  0  0  0  0  0
  -54.8228   59.8761  354.0627 H   0  0  0  0  0  0  0  0  0  0  0  0
  -55.8907   60.3893  352.7126 H   0  0  0  0  0  0  0  0  0  0  0  0
  -55.1709   58.7436  352.7126 H   0  0  0  0  0  0  0  0  0  0  0  0
  -54.6970   68.1687  348.2961 H   0  0  0  0  0  0  0  0  0  0  0  0
  -53.5050   68.6447  347.0484 H   0  0  0  0  0  0  0  0  0  0  0  0
  -54.6728   67.1616  345.3495 H   0  0  0  0  0  0  0  0  0  0  0  0
  -56.0619   66.9881  348.7446 H   0  0  0  0  0  0  0  0  0  0  0  0
  -56.9255   68.4611  348.1867 H   0  0  0  0  0  0  0  0  0  0  0  0
  -57.7655   66.8733  348.1867 H   0  0  0  0  0  0  0  0  0  0  0  0
  -56.9557   65.7382  345.1906 H   0  0  0  0  0  0  0  0  0  0  0  0
  -58.2779   66.5010  346.2233 H   0  0  0  0  0  0  0  0  0  0  0  0
  -58.7186   67.4533  344.1937 H   0  0  0  0  0  0  0  0  0  0  0  0
  -57.6021   68.6664  344.9372 H   0  0  0  0  0  0  0  0  0  0  0  0
  -55.7909   68.0015  343.6177 H   0  0  0  0  0  0  0  0  0  0  0  0
  -56.6058   66.4199  343.1876 H   0  0  0  0  0  0  0  0  0  0  0  0
  -58.3033   68.3902  342.2413 H   0  0  0  0  0  0  0  0  0  0  0  0
  -57.1450   66.0648  341.3999 H   0  0  0  0  0  0  0  0  0  0  0  0
  -58.1055   67.1495  340.3381 H   0  0  0  0  0  0  0  0  0  0  0  0
  -56.3120   67.2503  340.3381 H   0  0  0  0  0  0  0  0  0  0  0  0
  -56.1716   69.8848  342.5458 H   0  0  0  0  0  0  0  0  0  0  0  0
  -55.6722   69.0500  341.0012 H   0  0  0  0  0  0  0  0  0  0  0  0
  -58.0254   69.7330  340.1661 H   0  0  0  0  0  0  0  0  0  0  0  0
  -57.9281   70.9432  341.5364 H   0  0  0  0  0  0  0  0  0  0  0  0
  -55.7840   71.7535  340.5650 H   0  0  0  0  0  0  0  0  0  0  0  0
  -56.1233   70.7008  339.1242 H   0  0  0  0  0  0  0  0  0  0  0  0
  -56.7694   73.0098  338.7325 H   0  0  0  0  0  0  0  0  0  0  0  0
  -57.8266   72.8983  341.3945 H   0  0  0  0  0  0  0  0  0  0  0  0
  -57.7522   74.2970  340.2700 H   0  0  0  0  0  0  0  0  0  0  0  0
  -59.1899   73.2201  340.2700 H   0  0  0  0  0  0  0  0  0  0  0  0
  -59.1165   71.0802  339.0990 H   0  0  0  0  0  0  0  0  0  0  0  0
  -59.1109   72.5852  338.0592 H   0  0  0  0  0  0  0  0  0  0  0  0
  -57.1941   71.5486  336.7919 H   0  0  0  0  0  0  0  0  0  0  0  0
  -57.5627   70.0152  337.6514 H   0  0  0  0  0  0  0  0  0  0  0  0
  -60.0266   71.1928  336.6670 H   0  0  0  0  0  0  0  0  0  0  0  0
  -58.8141   71.0700  335.3245 H   0  0  0  0  0  0  0  0  0  0  0  0
  -59.7481   68.9784  335.1626 H   0  0  0  0  0  0  0  0  0  0  0  0
  -60.0941   68.9231  338.1887 H   0  0  0  0  0  0  0  0  0  0  0  0
  -61.3639   69.3889  337.0065 H   0  0  0  0  0  0  0  0  0  0  0  0
  -60.7065   67.7172  337.0065 H   0  0  0  0  0  0  0  0  0  0  0  0
  -57.9765   68.3558  337.5489 H   0  0  0  0  0  0  0  0  0  0  0  0
  -58.1862   67.4357  336.0204 H   0  0  0  0  0  0  0  0  0  0  0  0
  -57.2685   68.9799  336.0204 H   0  0  0  0  0  0  0  0  0  0  0  0
  1  6  1  0
  1 36  2  0
  1 40  1  0
  2  9  2  0
  2 17  1  0
  3 20  1  0
  3 25  2  0
  4 28  1  0
  4 33  2  0
  5  6  2  0
  5  9  1  0
  6  7  1  0
  7  8  1  0
  7 11  1  0
  8  9  1  0
  8 10  1  0
 11 12  1  0
 12 13  1  0
 13 14  2  0
 13 15  1  0
 15 45  1  0
 16 17  1  0
 16 20  1  0
 17 18  2  0
 18 19  1  0
 18 21  1  0
 19 20  2  0
 19 22  1  0
 22 23  2  0
 24 25  1  0
 24 28  2  0
 25 26  1  0
 26 27  2  0
 26 29  1  0
 27 28  1  0
 27 30  1  0
 30 31  1  0
 32 33  1  0
 32 36  1  0
 33 34  1  0
 34 35  2  0
 34 37  1  0
 35 36  1  0
 35 38  1  0
 38 39  2  0
 38 40  1  0
 40 41  1  0
 41 42  2  0
 41 43  1  0
 43 44  1  0
 45 46  1  0
 46 47  2  3
 47 48  1  0
 47 49  1  0
 49 50  1  0
 50 51  1  0
 51 52  1  0
 52 53  1  0
 52 54  1  0
 54 55  1  0
 55 56  1  0
 56 57  1  0
 57 58  1  0
 57 59  1  0
 59 60  1  0
 60 61  1  0
 61 62  1  0
 62 63  1  0
 62 64  1  0
  2 65  1  0
  3 66  1  0
  4 67  1  0
  7 68  1  1
  8 69  1  6
 10 70  1  0
 10 71  1  0
 10 72  1  0
 11 73  1  0
 11 74  1  0
 12 75  1  0
 12 76  1  0
 16 77  1  0
 21 78  1  0
 21 79  1  0
 21 80  1  0
 22 81  1  0
 23 82  1  0
 23 83  1  0
 29 84  1  0
 29 85  1  0
 29 86  1  0
 30 87  1  0
 30 88  1  0
 31 89  1  0
 31 90  1  0
 31 91  1  0
 32 92  1  0
 37 93  1  0
 37 94  1  0
 37 95  1  0
 40 96  1  1
 44 97  1  0
 44 98  1  0
 44 99  1  0
 45100  1  0
 45101  1  0
 46102  1  0
 48103  1  0
 48104  1  0
 48105  1  0
 49106  1  0
 49107  1  0
 50108  1  0
 50109  1  0
 51110  1  0
 51111  1  0
 52112  1  1
 53113  1  0
 53114  1  0
 53115  1  0
 54116  1  0
 54117  1  0
 55118  1  0
 55119  1  0
 56120  1  0
 56121  1  0
 57122  1  6
 58123  1  0
 58124  1  0
 58125  1  0
 59126  1  0
 59127  1  0
 60128  1  0
 60129  1  0
 61130  1  0
 61131  1  0
 62132  1  6
 63133  1  0
 63134  1  0
 63135  1  0
 64136  1  0
 64137  1  0
 64138  1  0
M  END
>  <filename_input>  (18) 
8F4J_PHO_docked.sdf

>  <pdb_id>  (18) 
8F4J_PHO

>  <pose_rank>  (18) 
17

>  <num_atoms_heavy>  (18) 
64

>  <num_torsions>  (18) 
22

>  <pose>  (18) 
[-53.72806195483853, 61.056730462684314, 348.69415118421466, 0.4304227870707078, -2.67702058469786, -1.2811740136260634, 1.6408860409798616, 0.6944127645950968, 2.0646440660033303, 0.708167937729246, -1.983933112731786, -1.0804419940131993, -3.5800448568458543, 0.5065613798539671, -0.693882681815559, 4.246314210591175, 0.8027353598831205, -1.8614129573491431, -0.6537182467842698, -1.197769065033181, 4.717329295734678, -1.5839264895787502, 0.06307302080105848, 2.341135014046714, 0.23223204644246914, 0.1725372097622502, 1.243156148276407, -1.5130564716292896]

>  <energy>  (18) 
-306.8312638439771

>  <inter_energy>  (18) 
-425.0396873579149

>  <intra_energy>  (18) 
121.76951397155031

>  <rmsd>  (18) 
11.4778

>  <sdf_rank>  (18) 
0

$$$$

     RDKit          3D

138143  0  0  0  0  0  0  0  0999 V2000
  -60.1239   67.0202  350.7696 C   0  0  0  0  0  0  0  0  0  0  0  0
  -57.3629   69.7104  353.6587 C   0  0  0  0  0  0  0  0  0  0  0  0
  -53.4432   68.3696  350.9856 C   0  0  0  0  0  0  0  0  0  0  0  0
  -56.2300   65.7779  347.9032 C   0  0  0  0  0  0  0  0  0  0  0  0
  -58.5148   68.3437  352.0028 N   0  0  0  0  0  0  0  0  0  0  0  0
  -59.8175   67.8025  351.8199 C   0  0  0  0  0  0  0  0  0  0  0  0
  -60.7687   68.3119  352.8796 C   0  0  2  0  0  0  0  0  0  0  0  0
  -59.9292   69.4303  353.5662 C   0  0  1  0  0  0  0  0  0  0  0  0
  -58.5200   69.1332  353.0545 C   0  0  0  0  0  0  0  0  0  0  0  0
  -60.4177   70.7800  353.1241 C   0  0  0  0  0  0  0  0  0  0  0  0
  -61.2101   67.2409  353.8474 C   0  0  0  0  0  0  0  0  0  0  0  0
  -60.0666   66.9254  354.7934 C   0  0  0  0  0  0  0  0  0  0  0  0
  -60.6145   66.3683  356.0666 C   0  0  0  0  0  0  0  0  0  0  0  0
  -61.5828   65.6184  356.2111 O   0  0  0  0  0  0  0  0  0  0  0  0
  -59.9332   66.7892  357.1703 O   0  0  0  0  0  0  0  0  0  0  0  0
  -55.6332   68.7602  352.1361 N   0  0  0  0  0  0  0  0  0  0  0  0
  -56.0875   69.5136  353.2237 C   0  0  0  0  0  0  0  0  0  0  0  0
  -54.8858   70.1111  353.8570 C   0  0  0  0  0  0  0  0  0  0  0  0
  -53.7780   69.7452  353.1142 C   0  0  0  0  0  0  0  0  0  0  0  0
  -54.2315   68.8662  351.9865 C   0  0  0  0  0  0  0  0  0  0  0  0
  -55.0385   70.9824  355.0209 C   0  0  0  0  0  0  0  0  0  0  0  0
  -52.3909   70.1090  353.2428 C   0  0  0  0  0  0  0  0  0  0  0  0
  -51.6260   69.8922  354.3103 C   0  0  0  0  0  0  0  0  0  0  0  0
  -55.0618   67.0244  349.6997 N   0  0  0  0  0  0  0  0  0  0  0  0
  -53.8335   67.4966  349.9042 C   0  0  0  0  0  0  0  0  0  0  0  0
  -52.9344   67.0940  348.7740 C   0  0  0  0  0  0  0  0  0  0  0  0
  -53.7365   66.4126  347.8740 C   0  0  0  0  0  0  0  0  0  0  0  0
  -55.1071   66.3370  348.4589 C   0  0  0  0  0  0  0  0  0  0  0  0
  -51.5216   67.4660  348.6456 C   0  0  0  0  0  0  0  0  0  0  0  0
  -53.3575   65.8084  346.5832 C   0  0  0  0  0  0  0  0  0  0  0  0
  -53.7017   66.7125  345.4045 C   0  0  0  0  0  0  0  0  0  0  0  0
  -57.8248   66.4262  349.7037 N   0  0  0  0  0  0  0  0  0  0  0  0
  -57.5416   65.8076  348.4634 C   0  0  0  0  0  0  0  0  0  0  0  0
  -58.7766   65.3026  347.9135 C   0  0  0  0  0  0  0  0  0  0  0  0
  -59.8016   65.7288  348.7879 C   0  0  0  0  0  0  0  0  0  0  0  0
  -59.1668   66.4693  349.8536 C   0  0  0  0  0  0  0  0  0  0  0  0
  -58.9621   64.5282  346.6829 C   0  0  0  0  0  0  0  0  0  0  0  0
  -61.2348   65.7402  348.9898 C   0  0  0  0  0  0  0  0  0  0  0  0
  -62.1201   65.2265  348.3251 O   0  0  0  0  0  0  0  0  0  0  0  0
  -61.4942   66.6172  350.2562 C   0  0  2  0  0  0  0  0  0  0  0  0
  -62.3531   67.7907  349.8692 C   0  0  0  0  0  0  0  0  0  0  0  0
  -63.4883   68.0658  350.2405 O   0  0  0  0  0  0  0  0  0  0  0  0
  -61.7387   68.6310  348.9642 O   0  0  0  0  0  0  0  0  0  0  0  0
  -61.6914   70.0083  349.3163 C   0  0  0  0  0  0  0  0  0  0  0  0
  -58.5291   67.1056  357.0059 C   0  0  0  0  0  0  0  0  0  0  0  0
  -57.7701   66.4940  358.1290 C   0  0  0  0  0  0  0  0  0  0  0  0
  -56.9516   65.4646  357.8964 C   0  0  0  0  0  0  0  0  0  0  0  0
  -56.8261   64.9588  356.5181 C   0  0  0  0  0  0  0  0  0  0  0  0
  -56.1455   64.7795  358.9588 C   0  0  0  0  0  0  0  0  0  0  0  0
  -56.7060   63.4400  359.4531 C   0  0  0  0  0  0  0  0  0  0  0  0
  -58.2307   63.4510  359.4583 C   0  0  0  0  0  0  0  0  0  0  0  0
  -58.8608   62.4286  358.5174 C   0  0  2  0  0  0  0  0  0  0  0  0
  -57.7890   61.6147  357.8462 C   0  0  0  0  0  0  0  0  0  0  0  0
  -59.7753   63.0645  357.4688 C   0  0  0  0  0  0  0  0  0  0  0  0
  -59.9077   62.2302  356.1971 C   0  0  0  0  0  0  0  0  0  0  0  0
  -59.5707   62.9895  354.9198 C   0  0  0  0  0  0  0  0  0  0  0  0
  -60.4538   62.5658  353.7481 C   0  0  2  0  0  0  0  0  0  0  0  0
  -61.6889   63.4494  353.5922 C   0  0  0  0  0  0  0  0  0  0  0  0
  -60.9028   61.1285  353.9290 C   0  0  0  0  0  0  0  0  0  0  0  0
  -60.1189   60.1336  353.0977 C   0  0  0  0  0  0  0  0  0  0  0  0
  -60.8822   59.8342  351.8102 C   0  0  0  0  0  0  0  0  0  0  0  0
  -60.8658   58.3483  351.4779 C   0  0  2  0  0  0  0  0  0  0  0  0
  -59.7691   57.6527  352.2485 C   0  0  0  0  0  0  0  0  0  0  0  0
  -60.6274   58.1861  349.9972 C   0  0  0  0  0  0  0  0  0  0  0  0
  -57.5114   70.3583  354.5351 H   0  0  0  0  0  0  0  0  0  0  0  0
  -52.3856   68.6712  351.0070 H   0  0  0  0  0  0  0  0  0  0  0  0
  -56.1081   65.2608  346.9400 H   0  0  0  0  0  0  0  0  0  0  0  0
  -61.7224   68.6696  352.4644 H   0  0  0  0  0  0  0  0  0  0  0  0
  -59.9886   69.4444  354.6645 H   0  0  0  0  0  0  0  0  0  0  0  0
  -60.6409   71.3965  354.0073 H   0  0  0  0  0  0  0  0  0  0  0  0
  -59.6405   71.2716  352.5206 H   0  0  0  0  0  0  0  0  0  0  0  0
  -61.3295   70.6603  352.5206 H   0  0  0  0  0  0  0  0  0  0  0  0
  -62.0764   67.5989  354.4230 H   0  0  0  0  0  0  0  0  0  0  0  0
  -61.4935   66.3342  353.2929 H   0  0  0  0  0  0  0  0  0  0  0  0
  -59.3981   66.1866  354.3273 H   0  0  0  0  0  0  0  0  0  0  0  0
  -59.5029   67.8454  355.0077 H   0  0  0  0  0  0  0  0  0  0  0  0
  -56.2421   68.1999  351.5228 H   0  0  0  0  0  0  0  0  0  0  0  0
  -54.9343   70.3876  355.9404 H   0  0  0  0  0  0  0  0  0  0  0  0
  -54.2634   71.7626  354.9991 H   0  0  0  0  0  0  0  0  0  0  0  0
  -56.0327   71.4525  354.9991 H   0  0  0  0  0  0  0  0  0  0  0  0
  -51.9221   70.6102  352.3831 H   0  0  0  0  0  0  0  0  0  0  0  0
  -50.5732   70.2108  354.3063 H   0  0  0  0  0  0  0  0  0  0  0  0
  -52.0467   69.3944  355.1964 H   0  0  0  0  0  0  0  0  0  0  0  0
  -51.0805   67.5822  349.6466 H   0  0  0  0  0  0  0  0  0  0  0  0
  -50.9835   66.6789  348.0969 H   0  0  0  0  0  0  0  0  0  0  0  0
  -51.4410   68.4160  348.0969 H   0  0  0  0  0  0  0  0  0  0  0  0
  -52.2733   65.6226  346.5832 H   0  0  0  0  0  0  0  0  0  0  0  0
  -53.9225   64.8716  346.4684 H   0  0  0  0  0  0  0  0  0  0  0  0
  -54.0697   67.6790  345.7790 H   0  0  0  0  0  0  0  0  0  0  0  0
  -52.8025   66.8748  344.7921 H   0  0  0  0  0  0  0  0  0  0  0  0
  -54.4812   66.2357  344.7921 H   0  0  0  0  0  0  0  0  0  0  0  0
  -57.1293   66.7818  350.3751 H   0  0  0  0  0  0  0  0  0  0  0  0
  -59.2112   63.4878  346.9385 H   0  0  0  0  0  0  0  0  0  0  0  0
  -59.7805   64.9671  346.0934 H   0  0  0  0  0  0  0  0  0  0  0  0
  -58.0336   64.5488  346.0934 H   0  0  0  0  0  0  0  0  0  0  0  0
  -62.0382   66.0887  351.0529 H   0  0  0  0  0  0  0  0  0  0  0  0
  -61.6880   70.1067  350.4119 H   0  0  0  0  0  0  0  0  0  0  0  0
  -60.7772   70.4608  348.9047 H   0  0  0  0  0  0  0  0  0  0  0  0
  -62.5724   70.5224  348.9047 H   0  0  0  0  0  0  0  0  0  0  0  0
  -58.1672   66.6997  356.0497 H   0  0  0  0  0  0  0  0  0  0  0  0
  -58.3871   68.1964  357.0065 H   0  0  0  0  0  0  0  0  0  0  0  0
  -57.8827   66.8887  359.1496 H   0  0  0  0  0  0  0  0  0  0  0  0
  -56.5614   63.8914  356.5419 H   0  0  0  0  0  0  0  0  0  0  0  0
  -57.7834   65.0875  355.9918 H   0  0  0  0  0  0  0  0  0  0  0  0
  -56.0400   65.5200  355.9918 H   0  0  0  0  0  0  0  0  0  0  0  0
  -55.1386   64.5971  358.5552 H   0  0  0  0  0  0  0  0  0  0  0  0
  -56.1598   65.4521  359.8290 H   0  0  0  0  0  0  0  0  0  0  0  0
  -56.3549   62.6366  358.7889 H   0  0  0  0  0  0  0  0  0  0  0  0
  -56.3545   63.2726  360.4819 H   0  0  0  0  0  0  0  0  0  0  0  0
  -58.5749   63.2383  360.4812 H   0  0  0  0  0  0  0  0  0  0  0  0
  -58.5435   64.4446  359.1049 H   0  0  0  0  0  0  0  0  0  0  0  0
  -59.4942   61.7751  359.1354 H   0  0  0  0  0  0  0  0  0  0  0  0
  -57.1591   61.1364  358.6107 H   0  0  0  0  0  0  0  0  0  0  0  0
  -58.2551   60.8410  357.2186 H   0  0  0  0  0  0  0  0  0  0  0  0
  -57.1689   62.2716  357.2186 H   0  0  0  0  0  0  0  0  0  0  0  0
  -60.7755   63.1914  357.9087 H   0  0  0  0  0  0  0  0  0  0  0  0
  -59.3234   64.0255  357.1822 H   0  0  0  0  0  0  0  0  0  0  0  0
  -59.2287   61.3684  356.2765 H   0  0  0  0  0  0  0  0  0  0  0  0
  -60.9637   61.9317  356.1207 H   0  0  0  0  0  0  0  0  0  0  0  0
  -59.7122   64.0655  355.0993 H   0  0  0  0  0  0  0  0  0  0  0  0
  -58.5273   62.7620  354.6564 H   0  0  0  0  0  0  0  0  0  0  0  0
  -59.8434   62.6717  352.8392 H   0  0  0  0  0  0  0  0  0  0  0  0
  -62.0717   63.7233  354.5864 H   0  0  0  0  0  0  0  0  0  0  0  0
  -61.4199   64.3613  353.0389 H   0  0  0  0  0  0  0  0  0  0  0  0
  -62.4651   62.9004  353.0389 H   0  0  0  0  0  0  0  0  0  0  0  0
  -60.7885   60.8604  354.9897 H   0  0  0  0  0  0  0  0  0  0  0  0
  -61.9483   61.0746  353.5914 H   0  0  0  0  0  0  0  0  0  0  0  0
  -59.1345   60.5574  352.8504 H   0  0  0  0  0  0  0  0  0  0  0  0
  -59.9843   59.2034  353.6692 H   0  0  0  0  0  0  0  0  0  0  0  0
  -61.9256   60.1611  351.9302 H   0  0  0  0  0  0  0  0  0  0  0  0
  -60.3917   60.3749  350.9873 H   0  0  0  0  0  0  0  0  0  0  0  0
  -61.8298   57.8982  351.7572 H   0  0  0  0  0  0  0  0  0  0  0  0
  -59.9497   57.7673  353.3275 H   0  0  0  0  0  0  0  0  0  0  0  0
  -59.7604   56.5836  351.9897 H   0  0  0  0  0  0  0  0  0  0  0  0
  -58.7983   58.1005  351.9897 H   0  0  0  0  0  0  0  0  0  0  0  0
  -59.7278   57.5741  349.8355 H   0  0  0  0  0  0  0  0  0  0  0  0
  -61.4955   57.6904  349.5382 H   0  0  0  0  0  0  0  0  0  0  0  0
  -60.4852   59.1756  349.5382 H   0  0  0  0  0  0  0  0  0  0  0  0
  1  6  1  0
  1 36  2  0
  1 40  1  0
  2  9  2  0
  2 17  1  0
  3 20  1  0
  3 25  2  0
  4 28  1  0
  4 33  2  0
  5  6  2  0
  5  9  1  0
  6  7  1  0
  7  8  1  0
  7 11  1  0
  8  9  1  0
  8 10  1  0
 11 12  1  0
 12 13  1  0
 13 14  2  0
 13 15  1  0
 15 45  1  0
 16 17  1  0
 16 20  1  0
 17 18  2  0
 18 19  1  0
 18 21  1  0
 19 20  2  0
 19 22  1  0
 22 23  2  0
 24 25  1  0
 24 28  2  0
 25 26  1  0
 26 27  2  0
 26 29  1  0
 27 28  1  0
 27 30  1  0
 30 31  1  0
 32 33  1  0
 32 36  1  0
 33 34  1  0
 34 35  2  0
 34 37  1  0
 35 36  1  0
 35 38  1  0
 38 39  2  0
 38 40  1  0
 40 41  1  0
 41 42  2  0
 41 43  1  0
 43 44  1  0
 45 46  1  0
 46 47  2  3
 47 48  1  0
 47 49  1  0
 49 50  1  0
 50 51  1  0
 51 52  1  0
 52 53  1  0
 52 54  1  0
 54 55  1  0
 55 56  1  0
 56 57  1  0
 57 58  1  0
 57 59  1  0
 59 60  1  0
 60 61  1  0
 61 62  1  0
 62 63  1  0
 62 64  1  0
  2 65  1  0
  3 66  1  0
  4 67  1  0
  7 68  1  6
  8 69  1  1
 10 70  1  0
 10 71  1  0
 10 72  1  0
 11 73  1  0
 11 74  1  0
 12 75  1  0
 12 76  1  0
 16 77  1  0
 21 78  1  0
 21 79  1  0
 21 80  1  0
 22 81  1  0
 23 82  1  0
 23 83  1  0
 29 84  1  0
 29 85  1  0
 29 86  1  0
 30 87  1  0
 30 88  1  0
 31 89  1  0
 31 90  1  0
 31 91  1  0
 32 92  1  0
 37 93  1  0
 37 94  1  0
 37 95  1  0
 40 96  1  1
 44 97  1  0
 44 98  1  0
 44 99  1  0
 45100  1  0
 45101  1  0
 46102  1  0
 48103  1  0
 48104  1  0
 48105  1  0
 49106  1  0
 49107  1  0
 50108  1  0
 50109  1  0
 51110  1  0
 51111  1  0
 52112  1  1
 53113  1  0
 53114  1  0
 53115  1  0
 54116  1  0
 54117  1  0
 55118  1  0
 55119  1  0
 56120  1  0
 56121  1  0
 57122  1  6
 58123  1  0
 58124  1  0
 58125  1  0
 59126  1  0
 59127  1  0
 60128  1  0
 60129  1  0
 61130  1  0
 61131  1  0
 62132  1  1
 63133  1  0
 63134  1  0
 63135  1  0
 64136  1  0
 64137  1  0
 64138  1  0
M  END
>  <filename_input>  (19) 
8F4J_PHO_docked.sdf

>  <pdb_id>  (19) 
8F4J_PHO

>  <pose_rank>  (19) 
18

>  <num_atoms_heavy>  (19) 
64

>  <num_torsions>  (19) 
22

>  <pose>  (19) 
[-60.12393244790024, 67.02021417140507, 350.76962024452695, 0.1273298027056932, -2.14372500027399, -4.5263339471495785, 0.6344034654518448, 2.663399723376584, 0.4876457997354982, 1.0483948547430642, 10.82928841350049, 12.04175359121991, -12.18218510685271, -10.204638662484347, 2.5271545058860827, -1.9637208514122537, 3.764663762899333, 2.2901909272415373, 4.864566318275475, 1.0538737518651344, 3.770597104143414, -1.03091217775389, 0.5125832599073505, 2.894648095353511, -0.44876192017732, 1.3827183532133145, 0.878931208549753, -3.4230351149318894]

>  <energy>  (19) 
-307.0842225703635

>  <inter_energy>  (19) 
-327.05193216158375

>  <intra_energy>  (19) 
27.635089884479438

>  <rmsd>  (19) 
8.48586

>  <sdf_rank>  (19) 
0

$$$$

     RDKit          3D

138143  0  0  0  0  0  0  0  0999 V2000
  -55.1995   64.4155  358.5780 C   0  0  0  0  0  0  0  0  0  0  0  0
  -50.6795   65.5197  359.8260 C   0  0  0  0  0  0  0  0  0  0  0  0
  -52.1203   70.1849  360.5100 C   0  0  0  0  0  0  0  0  0  0  0  0
  -56.7686   69.0759  359.4389 C   0  0  0  0  0  0  0  0  0  0  0  0
  -53.0456   65.2372  359.3179 N   0  0  0  0  0  0  0  0  0  0  0  0
  -53.8823   64.2247  358.7718 C   0  0  0  0  0  0  0  0  0  0  0  0
  -53.1109   62.9411  358.5608 C   0  0  2  0  0  0  0  0  0  0  0  0
  -51.7686   63.2387  359.2933 C   0  0  1  0  0  0  0  0  0  0  0  0
  -51.8325   64.7548  359.4761 C   0  0  0  0  0  0  0  0  0  0  0  0
  -51.7316   62.5124  360.6073 C   0  0  0  0  0  0  0  0  0  0  0  0
  -52.9135   62.5981  357.1042 C   0  0  0  0  0  0  0  0  0  0  0  0
  -53.4754   63.7191  356.2501 C   0  0  0  0  0  0  0  0  0  0  0  0
  -52.5087   64.0443  355.1586 C   0  0  0  0  0  0  0  0  0  0  0  0
  -51.3878   64.5476  355.2638 O   0  0  0  0  0  0  0  0  0  0  0  0
  -52.9852   63.7444  353.9166 O   0  0  0  0  0  0  0  0  0  0  0  0
  -51.7546   67.7626  359.9892 N   0  0  0  0  0  0  0  0  0  0  0  0
  -50.6831   66.8648  360.0395 C   0  0  0  0  0  0  0  0  0  0  0  0
  -49.4815   67.6583  360.3983 C   0  0  0  0  0  0  0  0  0  0  0  0
  -49.8726   68.9700  360.5966 C   0  0  0  0  0  0  0  0  0  0  0  0
  -51.3469   69.0703  360.3387 C   0  0  0  0  0  0  0  0  0  0  0  0
  -48.1911   66.9887  360.5519 C   0  0  0  0  0  0  0  0  0  0  0  0
  -49.1277   70.1240  361.0282 C   0  0  0  0  0  0  0  0  0  0  0  0
  -48.3158   70.8544  360.2674 C   0  0  0  0  0  0  0  0  0  0  0  0
  -54.3307   69.3732  359.7763 N   0  0  0  0  0  0  0  0  0  0  0  0
  -53.5313   70.3309  360.2427 C   0  0  0  0  0  0  0  0  0  0  0  0
  -54.3341   71.5532  360.5734 C   0  0  0  0  0  0  0  0  0  0  0  0
  -55.6551   71.2189  360.3269 C   0  0  0  0  0  0  0  0  0  0  0  0
  -55.6757   69.8260  359.7926 C   0  0  0  0  0  0  0  0  0  0  0  0
  -53.7912   72.7912  361.1425 C   0  0  0  0  0  0  0  0  0  0  0  0
  -56.8588   72.0542  360.4952 C   0  0  0  0  0  0  0  0  0  0  0  0
  -56.8365   73.2802  359.5887 C   0  0  0  0  0  0  0  0  0  0  0  0
  -55.5434   66.9758  358.8967 N   0  0  0  0  0  0  0  0  0  0  0  0
  -56.7443   67.7140  359.0150 C   0  0  0  0  0  0  0  0  0  0  0  0
  -57.8484   66.8432  358.6903 C   0  0  0  0  0  0  0  0  0  0  0  0
  -57.2929   65.5594  358.4897 C   0  0  0  0  0  0  0  0  0  0  0  0
  -55.8665   65.6815  358.6831 C   0  0  0  0  0  0  0  0  0  0  0  0
  -59.2707   67.1878  358.6083 C   0  0  0  0  0  0  0  0  0  0  0  0
  -57.6179   64.1768  358.2111 C   0  0  0  0  0  0  0  0  0  0  0  0
  -58.6999   63.6609  357.9816 O   0  0  0  0  0  0  0  0  0  0  0  0
  -56.2766   63.3816  358.3050 C   0  0  2  0  0  0  0  0  0  0  0  0
  -56.3976   62.3477  359.3917 C   0  0  0  0  0  0  0  0  0  0  0  0
  -56.2118   62.4759  360.5965 O   0  0  0  0  0  0  0  0  0  0  0  0
  -56.7554   61.1045  358.9133 O   0  0  0  0  0  0  0  0  0  0  0  0
  -55.8620   60.0369  359.2053 C   0  0  0  0  0  0  0  0  0  0  0  0
  -52.3952   62.6119  353.2324 C   0  0  0  0  0  0  0  0  0  0  0  0
  -52.9078   62.5810  351.8367 C   0  0  0  0  0  0  0  0  0  0  0  0
  -53.3257   61.4285  351.3067 C   0  0  0  0  0  0  0  0  0  0  0  0
  -53.2630   60.2081  352.1299 C   0  0  0  0  0  0  0  0  0  0  0  0
  -53.8573   61.2930  349.9114 C   0  0  0  0  0  0  0  0  0  0  0  0
  -53.5704   59.9532  349.2220 C   0  0  0  0  0  0  0  0  0  0  0  0
  -54.6216   59.6451  348.1614 C   0  0  0  0  0  0  0  0  0  0  0  0
  -54.4711   58.2683  347.5215 C   0  0  2  0  0  0  0  0  0  0  0  0
  -53.0196   57.8783  347.4701 C   0  0  0  0  0  0  0  0  0  0  0  0
  -55.0894   58.1869  346.1246 C   0  0  0  0  0  0  0  0  0  0  0  0
  -54.6121   59.2936  345.1874 C   0  0  0  0  0  0  0  0  0  0  0  0
  -55.7360   59.9991  344.4385 C   0  0  0  0  0  0  0  0  0  0  0  0
  -55.7632   61.4996  344.7216 C   0  0  2  0  0  0  0  0  0  0  0  0
  -56.5183   61.8433  346.0031 C   0  0  0  0  0  0  0  0  0  0  0  0
  -56.4091   62.2352  343.5633 C   0  0  0  0  0  0  0  0  0  0  0  0
  -56.9984   63.5781  343.9439 C   0  0  0  0  0  0  0  0  0  0  0  0
  -55.9154   64.6505  343.8599 C   0  0  0  0  0  0  0  0  0  0  0  0
  -55.9697   65.6005  345.0487 C   0  0  2  0  0  0  0  0  0  0  0  0
  -54.8936   65.2488  346.0481 C   0  0  0  0  0  0  0  0  0  0  0  0
  -57.3254   65.4838  345.7000 C   0  0  0  0  0  0  0  0  0  0  0  0
  -49.7229   64.9867  359.9303 H   0  0  0  0  0  0  0  0  0  0  0  0
  -51.6059   71.0765  360.8979 H   0  0  0  0  0  0  0  0  0  0  0  0
  -57.7510   69.5684  359.4864 H   0  0  0  0  0  0  0  0  0  0  0  0
  -53.6366   62.0557  358.9479 H   0  0  0  0  0  0  0  0  0  0  0  0
  -50.8663   62.9130  358.7550 H   0  0  0  0  0  0  0  0  0  0  0  0
  -51.7687   63.2413  361.4303 H   0  0  0  0  0  0  0  0  0  0  0  0
  -52.5965   61.8364  360.6771 H   0  0  0  0  0  0  0  0  0  0  0  0
  -50.8026   61.9276  360.6771 H   0  0  0  0  0  0  0  0  0  0  0  0
  -51.8399   62.4789  356.8961 H   0  0  0  0  0  0  0  0  0  0  0  0
  -53.4340   61.6576  356.8709 H   0  0  0  0  0  0  0  0  0  0  0  0
  -54.4321   63.4009  355.8101 H   0  0  0  0  0  0  0  0  0  0  0  0
  -53.6378   64.6102  356.8742 H   0  0  0  0  0  0  0  0  0  0  0  0
  -52.7175   67.5040  359.7305 H   0  0  0  0  0  0  0  0  0  0  0  0
  -47.9642   66.8709  361.6218 H   0  0  0  0  0  0  0  0  0  0  0  0
  -48.2328   65.9984  360.0748 H   0  0  0  0  0  0  0  0  0  0  0  0
  -47.4054   67.5928  360.0748 H   0  0  0  0  0  0  0  0  0  0  0  0
  -49.2395   70.4288  362.0792 H   0  0  0  0  0  0  0  0  0  0  0  0
  -47.7913   71.7208  360.6967 H   0  0  0  0  0  0  0  0  0  0  0  0
  -48.1693   70.5918  359.2093 H   0  0  0  0  0  0  0  0  0  0  0  0
  -53.8171   72.7321  362.2406 H   0  0  0  0  0  0  0  0  0  0  0  0
  -52.7522   72.9243  360.8068 H   0  0  0  0  0  0  0  0  0  0  0  0
  -54.3973   73.6456  360.8068 H   0  0  0  0  0  0  0  0  0  0  0  0
  -57.7461   71.4506  360.2540 H   0  0  0  0  0  0  0  0  0  0  0  0
  -56.8858   72.4039  361.5378 H   0  0  0  0  0  0  0  0  0  0  0  0
  -56.8199   74.1914  360.2046 H   0  0  0  0  0  0  0  0  0  0  0  0
  -55.9387   73.2505  358.9537 H   0  0  0  0  0  0  0  0  0  0  0  0
  -57.7347   73.2831  358.9537 H   0  0  0  0  0  0  0  0  0  0  0  0
  -54.5892   67.3583  358.9621 H   0  0  0  0  0  0  0  0  0  0  0  0
  -59.6828   67.2876  359.6233 H   0  0  0  0  0  0  0  0  0  0  0  0
  -59.3868   68.1401  358.0701 H   0  0  0  0  0  0  0  0  0  0  0  0
  -59.8098   66.3943  358.0701 H   0  0  0  0  0  0  0  0  0  0  0  0
  -56.0261   62.8320  357.3857 H   0  0  0  0  0  0  0  0  0  0  0  0
  -55.7684   59.9250  360.2956 H   0  0  0  0  0  0  0  0  0  0  0  0
  -56.2522   59.1037  358.7731 H   0  0  0  0  0  0  0  0  0  0  0  0
  -54.8746   60.2565  358.7731 H   0  0  0  0  0  0  0  0  0  0  0  0
  -51.3000   62.7142  353.2227 H   0  0  0  0  0  0  0  0  0  0  0  0
  -52.6614   61.6791  353.7511 H   0  0  0  0  0  0  0  0  0  0  0  0
  -52.9426   63.5057  351.2420 H   0  0  0  0  0  0  0  0  0  0  0  0
  -53.2771   60.4830  353.1949 H   0  0  0  0  0  0  0  0  0  0  0  0
  -54.1294   59.5689  351.9047 H   0  0  0  0  0  0  0  0  0  0  0  0
  -52.3355   59.6612  351.9047 H   0  0  0  0  0  0  0  0  0  0  0  0
  -54.9483   61.4273  349.9500 H   0  0  0  0  0  0  0  0  0  0  0  0
  -53.3369   62.0567  349.3148 H   0  0  0  0  0  0  0  0  0  0  0  0
  -52.5808   59.9998  348.7439 H   0  0  0  0  0  0  0  0  0  0  0  0
  -53.5962   59.1573  349.9808 H   0  0  0  0  0  0  0  0  0  0  0  0
  -55.6145   59.7016  348.6315 H   0  0  0  0  0  0  0  0  0  0  0  0
  -54.4910   60.3857  347.3586 H   0  0  0  0  0  0  0  0  0  0  0  0
  -55.0258   57.5604  348.1549 H   0  0  0  0  0  0  0  0  0  0  0  0
  -52.6315   57.7740  348.4940 H   0  0  0  0  0  0  0  0  0  0  0  0
  -52.9159   56.9204  346.9393 H   0  0  0  0  0  0  0  0  0  0  0  0
  -52.4498   58.6552  346.9393 H   0  0  0  0  0  0  0  0  0  0  0  0
  -54.8242   57.2157  345.6814 H   0  0  0  0  0  0  0  0  0  0  0  0
  -56.1766   58.3060  346.2421 H   0  0  0  0  0  0  0  0  0  0  0  0
  -54.0706   60.0425  345.7841 H   0  0  0  0  0  0  0  0  0  0  0  0
  -53.9752   58.8154  344.4287 H   0  0  0  0  0  0  0  0  0  0  0  0
  -55.5940   59.8446  343.3587 H   0  0  0  0  0  0  0  0  0  0  0  0
  -56.6904   59.5729  344.7813 H   0  0  0  0  0  0  0  0  0  0  0  0
  -54.7171   61.8151  344.8487 H   0  0  0  0  0  0  0  0  0  0  0  0
  -55.9073   61.5652  346.8745 H   0  0  0  0  0  0  0  0  0  0  0  0
  -56.7237   62.9236  346.0290 H   0  0  0  0  0  0  0  0  0  0  0  0
  -57.4679   61.2887  346.0290 H   0  0  0  0  0  0  0  0  0  0  0  0
  -55.6464   62.3985  342.7877 H   0  0  0  0  0  0  0  0  0  0  0  0
  -57.2414   61.6087  343.2101 H   0  0  0  0  0  0  0  0  0  0  0  0
  -57.8169   63.8285  343.2531 H   0  0  0  0  0  0  0  0  0  0  0  0
  -57.3880   63.5298  344.9715 H   0  0  0  0  0  0  0  0  0  0  0  0
  -54.9303   64.1614  343.8392 H   0  0  0  0  0  0  0  0  0  0  0  0
  -56.0840   65.2368  342.9446 H   0  0  0  0  0  0  0  0  0  0  0  0
  -55.8036   66.6316  344.7035 H   0  0  0  0  0  0  0  0  0  0  0  0
  -55.2848   65.3766  347.0683 H   0  0  0  0  0  0  0  0  0  0  0  0
  -54.5852   64.2031  345.9021 H   0  0  0  0  0  0  0  0  0  0  0  0
  -54.0271   65.9104  345.9021 H   0  0  0  0  0  0  0  0  0  0  0  0
  -57.2089   65.4938  346.7937 H   0  0  0  0  0  0  0  0  0  0  0  0
  -57.9550   66.3311  345.3905 H   0  0  0  0  0  0  0  0  0  0  0  0
  -57.8009   64.5414  345.3905 H   0  0  0  0  0  0  0  0  0  0  0  0
  1  6  1  0
  1 36  2  0
  1 40  1  0
  2  9  2  0
  2 17  1  0
  3 20  1  0
  3 25  2  0
  4 28  1  0
  4 33  2  0
  5  6  2  0
  5  9  1  0
  6  7  1  0
  7  8  1  0
  7 11  1  0
  8  9  1  0
  8 10  1  0
 11 12  1  0
 12 13  1  0
 13 14  2  0
 13 15  1  0
 15 45  1  0
 16 17  1  0
 16 20  1  0
 17 18  2  0
 18 19  1  0
 18 21  1  0
 19 20  2  0
 19 22  1  0
 22 23  2  0
 24 25  1  0
 24 28  2  0
 25 26  1  0
 26 27  2  0
 26 29  1  0
 27 28  1  0
 27 30  1  0
 30 31  1  0
 32 33  1  0
 32 36  1  0
 33 34  1  0
 34 35  2  0
 34 37  1  0
 35 36  1  0
 35 38  1  0
 38 39  2  0
 38 40  1  0
 40 41  1  0
 41 42  2  0
 41 43  1  0
 43 44  1  0
 45 46  1  0
 46 47  2  3
 47 48  1  0
 47 49  1  0
 49 50  1  0
 50 51  1  0
 51 52  1  0
 52 53  1  0
 52 54  1  0
 54 55  1  0
 55 56  1  0
 56 57  1  0
 57 58  1  0
 57 59  1  0
 59 60  1  0
 60 61  1  0
 61 62  1  0
 62 63  1  0
 62 64  1  0
  2 65  1  0
  3 66  1  0
  4 67  1  0
  7 68  1  1
  8 69  1  6
 10 70  1  0
 10 71  1  0
 10 72  1  0
 11 73  1  0
 11 74  1  0
 12 75  1  0
 12 76  1  0
 16 77  1  0
 21 78  1  0
 21 79  1  0
 21 80  1  0
 22 81  1  0
 23 82  1  0
 23 83  1  0
 29 84  1  0
 29 85  1  0
 29 86  1  0
 30 87  1  0
 30 88  1  0
 31 89  1  0
 31 90  1  0
 31 91  1  0
 32 92  1  0
 37 93  1  0
 37 94  1  0
 37 95  1  0
 40 96  1  6
 44 97  1  0
 44 98  1  0
 44 99  1  0
 45100  1  0
 45101  1  0
 46102  1  0
 48103  1  0
 48104  1  0
 48105  1  0
 49106  1  0
 49107  1  0
 50108  1  0
 50109  1  0
 51110  1  0
 51111  1  0
 52112  1  1
 53113  1  0
 53114  1  0
 53115  1  0
 54116  1  0
 54117  1  0
 55118  1  0
 55119  1  0
 56120  1  0
 56121  1  0
 57122  1  1
 58123  1  0
 58124  1  0
 58125  1  0
 59126  1  0
 59127  1  0
 60128  1  0
 60129  1  0
 61130  1  0
 61131  1  0
 62132  1  6
 63133  1  0
 63134  1  0
 63135  1  0
 64136  1  0
 64137  1  0
 64138  1  0
M  END
>  <filename_input>  (20) 
8F4J_PHO_docked.sdf

>  <pdb_id>  (20) 
8F4J_PHO

>  <pose_rank>  (20) 
19

>  <num_atoms_heavy>  (20) 
64

>  <num_torsions>  (20) 
22

>  <pose>  (20) 
[-55.19946909265768, 64.41549675103441, 358.57804067858467, -2.3704529898851363, -0.2343843192485932, -2.1052773746548743, 0.9741155909707543, -0.8096100054185091, 3.2673446949350438, -0.8795216540078988, -2.9620767368895717, -0.8764071959447662, -1.4298098751704507, 0.9778872562890311, 1.8802721889631808, 0.04583381853781614, -1.7160267780506266, -0.7079010480730084, -0.23322639243818682, 0.45957776638232556, 1.9865288567816177, -1.1421942106073595, -1.1343093846518209, -0.20115166174878635, -2.242135094966024, -1.706335863594236, 0.8841961927277828, -1.341732456397592]

>  <energy>  (20) 
-294.66189205633697

>  <inter_energy>  (20) 
-324.5733593985456

>  <intra_energy>  (20) 
32.01401982811359

>  <rmsd>  (20) 
14.9589

>  <sdf_rank>  (20) 
0

$$$$

     RDKit          3D

138143  0  0  0  0  0  0  0  0999 V2000
  -60.4760   67.1296  351.3122 C   0  0  0  0  0  0  0  0  0  0  0  0
  -57.3117   69.6941  353.8847 C   0  0  0  0  0  0  0  0  0  0  0  0
  -53.7570   68.1842  350.8201 C   0  0  0  0  0  0  0  0  0  0  0  0
  -56.9630   65.7194  348.0577 C   0  0  0  0  0  0  0  0  0  0  0  0
  -58.6899   68.3803  352.3644 N   0  0  0  0  0  0  0  0  0  0  0  0
  -60.0270   67.8970  352.3214 C   0  0  0  0  0  0  0  0  0  0  0  0
  -60.8384   68.4469  353.4732 C   0  0  2  0  0  0  0  0  0  0  0  0
  -59.8833   69.5270  354.0634 C   0  0  1  0  0  0  0  0  0  0  0  0
  -58.5500   69.1686  353.4077 C   0  0  0  0  0  0  0  0  0  0  0  0
  -60.3560   70.8971  353.6697 C   0  0  0  0  0  0  0  0  0  0  0  0
  -61.2220   67.3958  354.4861 C   0  0  0  0  0  0  0  0  0  0  0  0
  -60.0536   66.4485  354.6848 C   0  0  0  0  0  0  0  0  0  0  0  0
  -60.5028   65.0461  354.4339 C   0  0  0  0  0  0  0  0  0  0  0  0
  -59.8744   64.1346  353.8904 O   0  0  0  0  0  0  0  0  0  0  0  0
  -61.7757   64.8087  354.8614 O   0  0  0  0  0  0  0  0  0  0  0  0
  -55.7948   68.6698  352.1927 N   0  0  0  0  0  0  0  0  0  0  0  0
  -56.0989   69.4417  353.3189 C   0  0  0  0  0  0  0  0  0  0  0  0
  -54.8123   69.9855  353.8203 C   0  0  0  0  0  0  0  0  0  0  0  0
  -53.8057   69.5718  352.9666 C   0  0  0  0  0  0  0  0  0  0  0  0
  -54.4133   68.7143  351.8962 C   0  0  0  0  0  0  0  0  0  0  0  0
  -54.8036   70.8618  354.9903 C   0  0  0  0  0  0  0  0  0  0  0  0
  -52.3983   69.8742  352.9474 C   0  0  0  0  0  0  0  0  0  0  0  0
  -51.5986   69.9211  354.0103 C   0  0  0  0  0  0  0  0  0  0  0  0
  -55.5591   66.9122  349.7166 N   0  0  0  0  0  0  0  0  0  0  0  0
  -54.2966   67.3299  349.7891 C   0  0  0  0  0  0  0  0  0  0  0  0
  -53.5398   66.8890  348.5724 C   0  0  0  0  0  0  0  0  0  0  0  0
  -54.4610   66.2441  347.7642 C   0  0  0  0  0  0  0  0  0  0  0  0
  -55.7645   66.2283  348.4901 C   0  0  0  0  0  0  0  0  0  0  0  0
  -52.1333   67.1987  348.2948 C   0  0  0  0  0  0  0  0  0  0  0  0
  -54.2465   65.6247  346.4432 C   0  0  0  0  0  0  0  0  0  0  0  0
  -54.6563   66.5506  345.3030 C   0  0  0  0  0  0  0  0  0  0  0  0
  -58.3298   66.4360  350.0131 N   0  0  0  0  0  0  0  0  0  0  0  0
  -58.2059   65.8063  348.7524 C   0  0  0  0  0  0  0  0  0  0  0  0
  -59.5128   65.3564  348.3372 C   0  0  0  0  0  0  0  0  0  0  0  0
  -60.4205   65.8267  349.3127 C   0  0  0  0  0  0  0  0  0  0  0  0
  -59.6455   66.5378  350.3029 C   0  0  0  0  0  0  0  0  0  0  0  0
  -59.8602   64.5918  347.1360 C   0  0  0  0  0  0  0  0  0  0  0  0
  -61.8227   65.9008  349.6640 C   0  0  0  0  0  0  0  0  0  0  0  0
  -62.7946   65.4269  349.0980 O   0  0  0  0  0  0  0  0  0  0  0  0
  -61.9090   66.7875  350.9472 C   0  0  2  0  0  0  0  0  0  0  0  0
  -62.7516   67.9978  350.6478 C   0  0  0  0  0  0  0  0  0  0  0  0
  -62.5272   68.9142  349.8654 O   0  0  0  0  0  0  0  0  0  0  0  0
  -63.9144   68.0396  351.3886 O   0  0  0  0  0  0  0  0  0  0  0  0
  -64.0473   67.0558  352.4071 C   0  0  0  0  0  0  0  0  0  0  0  0
  -61.9769   63.6992  355.7710 C   0  0  0  0  0  0  0  0  0  0  0  0
  -61.5718   64.1260  357.1368 C   0  0  0  0  0  0  0  0  0  0  0  0
  -60.5248   63.5479  357.7314 C   0  0  0  0  0  0  0  0  0  0  0  0
  -59.7963   62.4907  357.0084 C   0  0  0  0  0  0  0  0  0  0  0  0
  -60.0389   63.9057  359.1039 C   0  0  0  0  0  0  0  0  0  0  0  0
  -58.5518   64.2675  359.2052 C   0  0  0  0  0  0  0  0  0  0  0  0
  -58.3079   65.7118  358.7817 C   0  0  0  0  0  0  0  0  0  0  0  0
  -56.9892   65.9270  358.0451 C   0  0  2  0  0  0  0  0  0  0  0  0
  -56.2498   64.6237  357.9177 C   0  0  0  0  0  0  0  0  0  0  0  0
  -56.0972   66.9772  358.7097 C   0  0  0  0  0  0  0  0  0  0  0  0
  -56.8826   68.1195  359.3493 C   0  0  0  0  0  0  0  0  0  0  0  0
  -56.2311   69.4872  359.1860 C   0  0  0  0  0  0  0  0  0  0  0  0
  -55.5175   69.9404  360.4579 C   0  0  2  0  0  0  0  0  0  0  0  0
  -56.3762   70.8653  361.3169 C   0  0  0  0  0  0  0  0  0  0  0  0
  -54.2307   70.6604  360.1032 C   0  0  0  0  0  0  0  0  0  0  0  0
  -53.5990   71.3938  361.2688 C   0  0  0  0  0  0  0  0  0  0  0  0
  -52.2096   71.8830  360.8685 C   0  0  0  0  0  0  0  0  0  0  0  0
  -51.2529   71.8933  362.0531 C   0  0  2  0  0  0  0  0  0  0  0  0
  -51.5951   70.7770  363.0108 C   0  0  0  0  0  0  0  0  0  0  0  0
  -51.3704   73.2215  362.7585 C   0  0  0  0  0  0  0  0  0  0  0  0
  -57.3388   70.3473  354.7693 H   0  0  0  0  0  0  0  0  0  0  0  0
  -52.6908   68.4391  350.7291 H   0  0  0  0  0  0  0  0  0  0  0  0
  -56.9657   65.1981  347.0891 H   0  0  0  0  0  0  0  0  0  0  0  0
  -61.8139   68.8465  353.1590 H   0  0  0  0  0  0  0  0  0  0  0  0
  -59.8263   69.5429  355.1618 H   0  0  0  0  0  0  0  0  0  0  0  0
  -60.5601   71.4885  354.5744 H   0  0  0  0  0  0  0  0  0  0  0  0
  -59.5781   71.3960  353.0732 H   0  0  0  0  0  0  0  0  0  0  0  0
  -61.2761   70.8101  353.0732 H   0  0  0  0  0  0  0  0  0  0  0  0
  -61.4712   67.8791  355.4423 H   0  0  0  0  0  0  0  0  0  0  0  0
  -62.0968   66.8349  354.1253 H   0  0  0  0  0  0  0  0  0  0  0  0
  -59.2480   66.7071  353.9818 H   0  0  0  0  0  0  0  0  0  0  0  0
  -59.6814   66.5358  355.7162 H   0  0  0  0  0  0  0  0  0  0  0  0
  -56.4887   68.1372  351.6489 H   0  0  0  0  0  0  0  0  0  0  0  0
  -54.8097   70.2516  355.9055 H   0  0  0  0  0  0  0  0  0  0  0  0
  -53.8992   71.4877  354.9729 H   0  0  0  0  0  0  0  0  0  0  0  0
  -55.6954   71.5056  354.9729 H   0  0  0  0  0  0  0  0  0  0  0  0
  -51.9439   70.0851  351.9681 H   0  0  0  0  0  0  0  0  0  0  0  0
  -50.5326   70.1628  353.8863 H   0  0  0  0  0  0  0  0  0  0  0  0
  -52.0035   69.7181  355.0127 H   0  0  0  0  0  0  0  0  0  0  0  0
  -51.5900   67.3184  349.2437 H   0  0  0  0  0  0  0  0  0  0  0  0
  -51.6844   66.3779  347.7162 H   0  0  0  0  0  0  0  0  0  0  0  0
  -52.0707   68.1322  347.7162 H   0  0  0  0  0  0  0  0  0  0  0  0
  -53.1796   65.3795  346.3353 H   0  0  0  0  0  0  0  0  0  0  0  0
  -54.8709   64.7208  346.3871 H   0  0  0  0  0  0  0  0  0  0  0  0
  -55.0687   67.4823  345.7176 H   0  0  0  0  0  0  0  0  0  0  0  0
  -53.7766   66.7822  344.6846 H   0  0  0  0  0  0  0  0  0  0  0  0
  -55.4192   66.0552  344.6846 H   0  0  0  0  0  0  0  0  0  0  0  0
  -57.5528   66.7602  350.6064 H   0  0  0  0  0  0  0  0  0  0  0  0
  -60.2987   63.6267  347.4298 H   0  0  0  0  0  0  0  0  0  0  0  0
  -60.5890   65.1589  346.5383 H   0  0  0  0  0  0  0  0  0  0  0  0
  -58.9536   64.4159  346.5383 H   0  0  0  0  0  0  0  0  0  0  0  0
  -62.3888   66.2829  351.7987 H   0  0  0  0  0  0  0  0  0  0  0  0
  -63.9822   67.5382  353.3936 H   0  0  0  0  0  0  0  0  0  0  0  0
  -65.0213   66.5544  352.3078 H   0  0  0  0  0  0  0  0  0  0  0  0
  -63.2412   66.3140  352.3078 H   0  0  0  0  0  0  0  0  0  0  0  0
  -63.0380   63.4093  355.7729 H   0  0  0  0  0  0  0  0  0  0  0  0
  -61.3725   62.8373  355.4519 H   0  0  0  0  0  0  0  0  0  0  0  0
  -62.1334   64.9163  357.6564 H   0  0  0  0  0  0  0  0  0  0  0  0
  -59.3262   61.8086  357.7322 H   0  0  0  0  0  0  0  0  0  0  0  0
  -60.4989   61.9275  356.3767 H   0  0  0  0  0  0  0  0  0  0  0  0
  -59.0198   62.9467  356.3767 H   0  0  0  0  0  0  0  0  0  0  0  0
  -60.6224   64.7694  359.4553 H   0  0  0  0  0  0  0  0  0  0  0  0
  -60.1718   63.0016  359.7162 H   0  0  0  0  0  0  0  0  0  0  0  0
  -58.2206   64.1376  360.2461 H   0  0  0  0  0  0  0  0  0  0  0  0
  -57.9849   63.6061  358.5336 H   0  0  0  0  0  0  0  0  0  0  0  0
  -59.1292   66.0215  358.1187 H   0  0  0  0  0  0  0  0  0  0  0  0
  -58.2596   66.3104  359.7033 H   0  0  0  0  0  0  0  0  0  0  0  0
  -57.2417   66.3125  357.0462 H   0  0  0  0  0  0  0  0  0  0  0  0
  -56.0262   64.2295  358.9200 H   0  0  0  0  0  0  0  0  0  0  0  0
  -56.8724   63.9010  357.3699 H   0  0  0  0  0  0  0  0  0  0  0  0
  -55.3100   64.7873  357.3699 H   0  0  0  0  0  0  0  0  0  0  0  0
  -55.4998   66.4841  359.4907 H   0  0  0  0  0  0  0  0  0  0  0  0
  -55.4678   67.4160  357.9215 H   0  0  0  0  0  0  0  0  0  0  0  0
  -57.8804   68.1543  358.8875 H   0  0  0  0  0  0  0  0  0  0  0  0
  -56.9226   67.9128  360.4290 H   0  0  0  0  0  0  0  0  0  0  0  0
  -55.4980   69.4352  358.3676 H   0  0  0  0  0  0  0  0  0  0  0  0
  -57.0251   70.2159  358.9657 H   0  0  0  0  0  0  0  0  0  0  0  0
  -55.3075   69.0322  361.0419 H   0  0  0  0  0  0  0  0  0  0  0  0
  -56.1854   70.6598  362.3805 H   0  0  0  0  0  0  0  0  0  0  0  0
  -56.1228   71.9123  361.0945 H   0  0  0  0  0  0  0  0  0  0  0  0
  -57.4392   70.6902  361.0945 H   0  0  0  0  0  0  0  0  0  0  0  0
  -53.5101   69.9184  359.7288 H   0  0  0  0  0  0  0  0  0  0  0  0
  -54.4855   71.4185  359.3480 H   0  0  0  0  0  0  0  0  0  0  0  0
  -54.2260   72.2548  361.5435 H   0  0  0  0  0  0  0  0  0  0  0  0
  -53.5147   70.7128  362.1285 H   0  0  0  0  0  0  0  0  0  0  0  0
  -51.8073   71.2166  360.0913 H   0  0  0  0  0  0  0  0  0  0  0  0
  -52.3035   72.9132  360.4948 H   0  0  0  0  0  0  0  0  0  0  0  0
  -50.2232   71.7448  361.6956 H   0  0  0  0  0  0  0  0  0  0  0  0
  -51.4854   71.1348  364.0452 H   0  0  0  0  0  0  0  0  0  0  0  0
  -52.6333   70.4548  362.8424 H   0  0  0  0  0  0  0  0  0  0  0  0
  -50.9159   69.9283  362.8424 H   0  0  0  0  0  0  0  0  0  0  0  0
  -51.3562   73.0613  363.8467 H   0  0  0  0  0  0  0  0  0  0  0  0
  -50.5257   73.8651  362.4716 H   0  0  0  0  0  0  0  0  0  0  0  0
  -52.3150   73.7067  362.4716 H   0  0  0  0  0  0  0  0  0  0  0  0
  1  6  1  0
  1 36  2  0
  1 40  1  0
  2  9  2  0
  2 17  1  0
  3 20  1  0
  3 25  2  0
  4 28  1  0
  4 33  2  0
  5  6  2  0
  5  9  1  0
  6  7  1  0
  7  8  1  0
  7 11  1  0
  8  9  1  0
  8 10  1  0
 11 12  1  0
 12 13  1  0
 13 14  2  0
 13 15  1  0
 15 45  1  0
 16 17  1  0
 16 20  1  0
 17 18  2  0
 18 19  1  0
 18 21  1  0
 19 20  2  0
 19 22  1  0
 22 23  2  0
 24 25  1  0
 24 28  2  0
 25 26  1  0
 26 27  2  0
 26 29  1  0
 27 28  1  0
 27 30  1  0
 30 31  1  0
 32 33  1  0
 32 36  1  0
 33 34  1  0
 34 35  2  0
 34 37  1  0
 35 36  1  0
 35 38  1  0
 38 39  2  0
 38 40  1  0
 40 41  1  0
 41 42  2  0
 41 43  1  0
 43 44  1  0
 45 46  1  0
 46 47  2  3
 47 48  1  0
 47 49  1  0
 49 50  1  0
 50 51  1  0
 51 52  1  0
 52 53  1  0
 52 54  1  0
 54 55  1  0
 55 56  1  0
 56 57  1  0
 57 58  1  0
 57 59  1  0
 59 60  1  0
 60 61  1  0
 61 62  1  0
 62 63  1  0
 62 64  1  0
  2 65  1  0
  3 66  1  0
  4 67  1  0
  7 68  1  6
  8 69  1  1
 10 70  1  0
 10 71  1  0
 10 72  1  0
 11 73  1  0
 11 74  1  0
 12 75  1  0
 12 76  1  0
 16 77  1  0
 21 78  1  0
 21 79  1  0
 21 80  1  0
 22 81  1  0
 23 82  1  0
 23 83  1  0
 29 84  1  0
 29 85  1  0
 29 86  1  0
 30 87  1  0
 30 88  1  0
 31 89  1  0
 31 90  1  0
 31 91  1  0
 32 92  1  0
 37 93  1  0
 37 94  1  0
 37 95  1  0
 40 96  1  1
 44 97  1  0
 44 98  1  0
 44 99  1  0
 45100  1  0
 45101  1  0
 46102  1  0
 48103  1  0
 48104  1  0
 48105  1  0
 49106  1  0
 49107  1  0
 50108  1  0
 50109  1  0
 51110  1  0
 51111  1  0
 52112  1  6
 53113  1  0
 53114  1  0
 53115  1  0
 54116  1  0
 54117  1  0
 55118  1  0
 55119  1  0
 56120  1  0
 56121  1  0
 57122  1  1
 58123  1  0
 58124  1  0
 58125  1  0
 59126  1  0
 59127  1  0
 60128  1  0
 60129  1  0
 61130  1  0
 61131  1  0
 62132  1  6
 63133  1  0
 63134  1  0
 63135  1  0
 64136  1  0
 64137  1  0
 64138  1  0
M  END
>  <filename_input>  (21) 
8F4J_PHO_docked.sdf

>  <pdb_id>  (21) 
8F4J_PHO

>  <pose_rank>  (21) 
20

>  <num_atoms_heavy>  (21) 
64

>  <num_torsions>  (21) 
22

>  <pose>  (21) 
[-60.47604158501001, 67.12962414523307, 351.3122481149659, -0.15120874685623084, -2.482011495575779, -4.338008884582045, 0.3418968266706998, 2.6760560618542395, 3.614627691224413, 3.4013008694667217, 3.9414300893615097, -17.979459570249677, -35.46463544789053, -18.170521696581577, -44.01053804952849, -5.892210833612864, 12.345116570147248, 23.155666565681734, 31.712986731483415, 7.302661074840987, -30.93989542281824, -32.72671579622738, -17.599528580530507, -25.552542726845324, -2.0342614234794, -25.368020999706502, -18.15373423722581, -8.838650710722447]

>  <energy>  (21) 
-260.24213320545863

>  <inter_energy>  (21) 
-288.2539091099406

>  <intra_energy>  (21) 
23.54346899893088

>  <rmsd>  (21) 
8.72202

>  <sdf_rank>  (21) 
0

$$$$

     RDKit          3D

138143  0  0  0  0  0  0  0  0999 V2000
  -61.4251   56.1719  348.0102 C   0  0  0  0  0  0  0  0  0  0  0  0
  -64.0587   60.1877  347.6295 C   0  0  0  0  0  0  0  0  0  0  0  0
  -65.1023   58.9358  342.9764 C   0  0  0  0  0  0  0  0  0  0  0  0
  -62.5990   54.7453  343.3724 C   0  0  0  0  0  0  0  0  0  0  0  0
  -62.8679   58.0631  347.5593 N   0  0  0  0  0  0  0  0  0  0  0  0
  -61.9441   57.3568  348.3784 C   0  0  0  0  0  0  0  0  0  0  0  0
  -61.7404   58.0653  349.6990 C   0  0  2  0  0  0  0  0  0  0  0  0
  -62.8591   59.1490  349.6679 C   0  0  1  0  0  0  0  0  0  0  0  0
  -63.2741   59.1391  348.1970 C   0  0  0  0  0  0  0  0  0  0  0  0
  -63.9860   58.7463  350.5754 C   0  0  0  0  0  0  0  0  0  0  0  0
  -60.3610   58.6594  349.8489 C   0  0  0  0  0  0  0  0  0  0  0  0
  -59.5997   58.4801  348.5488 C   0  0  0  0  0  0  0  0  0  0  0  0
  -58.8369   59.7277  348.2436 C   0  0  0  0  0  0  0  0  0  0  0  0
  -59.1905   60.8954  348.4232 O   0  0  0  0  0  0  0  0  0  0  0  0
  -57.6178   59.4845  347.6832 O   0  0  0  0  0  0  0  0  0  0  0  0
  -64.2969   59.2703  345.3241 N   0  0  0  0  0  0  0  0  0  0  0  0
  -64.4902   60.2144  346.3381 C   0  0  0  0  0  0  0  0  0  0  0  0
  -65.3016   61.3086  345.7494 C   0  0  0  0  0  0  0  0  0  0  0  0
  -65.6047   60.9682  344.4435 C   0  0  0  0  0  0  0  0  0  0  0  0
  -64.9656   59.6463  344.1367 C   0  0  0  0  0  0  0  0  0  0  0  0
  -65.6930   62.4466  346.5793 C   0  0  0  0  0  0  0  0  0  0  0  0
  -66.4189   61.6306  343.4582 C   0  0  0  0  0  0  0  0  0  0  0  0
  -66.0054   62.5729  342.6140 C   0  0  0  0  0  0  0  0  0  0  0  0
  -63.6511   56.9896  343.4118 N   0  0  0  0  0  0  0  0  0  0  0  0
  -64.4799   57.6801  342.6306 C   0  0  0  0  0  0  0  0  0  0  0  0
  -64.7773   56.9022  341.3840 C   0  0  0  0  0  0  0  0  0  0  0  0
  -64.1174   55.6928  341.5237 C   0  0  0  0  0  0  0  0  0  0  0  0
  -63.3678   55.7344  342.8131 C   0  0  0  0  0  0  0  0  0  0  0  0
  -65.6793   57.3373  340.3125 C   0  0  0  0  0  0  0  0  0  0  0  0
  -64.0828   54.5539  340.5874 C   0  0  0  0  0  0  0  0  0  0  0  0
  -65.0993   53.4786  340.9556 C   0  0  0  0  0  0  0  0  0  0  0  0
  -62.0694   55.9274  345.5002 N   0  0  0  0  0  0  0  0  0  0  0  0
  -61.9717   54.7992  344.6525 C   0  0  0  0  0  0  0  0  0  0  0  0
  -61.2064   53.7825  345.3333 C   0  0  0  0  0  0  0  0  0  0  0  0
  -60.9521   54.2821  346.6304 C   0  0  0  0  0  0  0  0  0  0  0  0
  -61.5549   55.5929  346.7038 C   0  0  0  0  0  0  0  0  0  0  0  0
  -60.7901   52.4751  344.8178 C   0  0  0  0  0  0  0  0  0  0  0  0
  -60.3606   53.9589  347.9113 C   0  0  0  0  0  0  0  0  0  0  0  0
  -59.7524   52.9598  348.2596 O   0  0  0  0  0  0  0  0  0  0  0  0
  -60.6883   55.1544  348.8619 C   0  0  2  0  0  0  0  0  0  0  0  0
  -61.5034   54.6469  350.0206 C   0  0  0  0  0  0  0  0  0  0  0  0
  -61.2050   54.6060  351.2087 O   0  0  0  0  0  0  0  0  0  0  0  0
  -62.7372   54.1628  349.6386 O   0  0  0  0  0  0  0  0  0  0  0  0
  -63.0862   52.8736  350.1276 C   0  0  0  0  0  0  0  0  0  0  0  0
  -56.4858   59.3601  348.5787 C   0  0  0  0  0  0  0  0  0  0  0  0
  -55.9603   60.7202  348.8711 C   0  0  0  0  0  0  0  0  0  0  0  0
  -54.9183   60.8684  349.6932 C   0  0  0  0  0  0  0  0  0  0  0  0
  -54.3157   59.6657  350.2945 C   0  0  0  0  0  0  0  0  0  0  0  0
  -54.3168   62.1942  350.0516 C   0  0  0  0  0  0  0  0  0  0  0  0
  -53.9333   63.0883  348.8658 C   0  0  0  0  0  0  0  0  0  0  0  0
  -54.8264   64.3222  348.7969 C   0  0  0  0  0  0  0  0  0  0  0  0
  -55.2550   64.6985  347.3818 C   0  0  2  0  0  0  0  0  0  0  0  0
  -54.0549   65.0945  346.5666 C   0  0  0  0  0  0  0  0  0  0  0  0
  -56.3048   65.8108  347.3505 C   0  0  0  0  0  0  0  0  0  0  0  0
  -56.4737   66.4433  345.9713 C   0  0  0  0  0  0  0  0  0  0  0  0
  -57.3641   65.6441  345.0279 C   0  0  0  0  0  0  0  0  0  0  0  0
  -56.5537   64.7617  344.0808 C   0  0  2  0  0  0  0  0  0  0  0  0
  -56.1035   65.5041  342.8251 C   0  0  0  0  0  0  0  0  0  0  0  0
  -57.3734   63.5551  343.6657 C   0  0  0  0  0  0  0  0  0  0  0  0
  -56.7883   62.2331  344.1187 C   0  0  0  0  0  0  0  0  0  0  0  0
  -55.6590   61.8273  343.1754 C   0  0  0  0  0  0  0  0  0  0  0  0
  -56.0584   60.6546  342.2899 C   0  0  2  0  0  0  0  0  0  0  0  0
  -57.3596   60.0571  342.7696 C   0  0  0  0  0  0  0  0  0  0  0  0
  -54.9693   59.6123  342.3469 C   0  0  0  0  0  0  0  0  0  0  0  0
  -64.3334   61.0316  348.2794 H   0  0  0  0  0  0  0  0  0  0  0  0
  -65.7656   59.3733  342.2158 H   0  0  0  0  0  0  0  0  0  0  0  0
  -62.4534   53.8291  342.7812 H   0  0  0  0  0  0  0  0  0  0  0  0
  -61.8069   57.3888  350.5639 H   0  0  0  0  0  0  0  0  0  0  0  0
  -62.5473   60.1452  350.0150 H   0  0  0  0  0  0  0  0  0  0  0  0
  -63.6709   58.8589  351.6233 H   0  0  0  0  0  0  0  0  0  0  0  0
  -64.8584   59.3883  350.3838 H   0  0  0  0  0  0  0  0  0  0  0  0
  -64.2539   57.6968  350.3838 H   0  0  0  0  0  0  0  0  0  0  0  0
  -60.4448   59.7312  350.0820 H   0  0  0  0  0  0  0  0  0  0  0  0
  -59.8256   58.1523  350.6651 H   0  0  0  0  0  0  0  0  0  0  0  0
  -58.9000   57.6369  348.6467 H   0  0  0  0  0  0  0  0  0  0  0  0
  -60.3088   58.2746  347.7334 H   0  0  0  0  0  0  0  0  0  0  0  0
  -63.7386   58.4111  345.4293 H   0  0  0  0  0  0  0  0  0  0  0  0
  -65.5997   62.1753  347.6413 H   0  0  0  0  0  0  0  0  0  0  0  0
  -65.0376   63.3025  346.3606 H   0  0  0  0  0  0  0  0  0  0  0  0
  -66.7362   62.7183  346.3606 H   0  0  0  0  0  0  0  0  0  0  0  0
  -67.4758   61.3317  343.3977 H   0  0  0  0  0  0  0  0  0  0  0  0
  -66.7113   63.0170  341.8967 H   0  0  0  0  0  0  0  0  0  0  0  0
  -64.9577   62.9077  342.6336 H   0  0  0  0  0  0  0  0  0  0  0  0
  -66.5872   57.7753  340.7527 H   0  0  0  0  0  0  0  0  0  0  0  0
  -65.1734   58.0904  339.6905 H   0  0  0  0  0  0  0  0  0  0  0  0
  -65.9538   56.4726  339.6905 H   0  0  0  0  0  0  0  0  0  0  0  0
  -64.3052   54.9205  339.5744 H   0  0  0  0  0  0  0  0  0  0  0  0
  -63.0802   54.1042  340.6374 H   0  0  0  0  0  0  0  0  0  0  0  0
  -65.1717   53.4020  342.0506 H   0  0  0  0  0  0  0  0  0  0  0  0
  -66.0824   53.7460  340.5410 H   0  0  0  0  0  0  0  0  0  0  0  0
  -64.7771   52.5120  340.5410 H   0  0  0  0  0  0  0  0  0  0  0  0
  -62.4639   56.8439  345.2444 H   0  0  0  0  0  0  0  0  0  0  0  0
  -60.5752   51.8005  345.6597 H   0  0  0  0  0  0  0  0  0  0  0  0
  -61.5970   52.0493  344.2034 H   0  0  0  0  0  0  0  0  0  0  0  0
  -59.8854   52.5944  344.2034 H   0  0  0  0  0  0  0  0  0  0  0  0
  -59.7957   55.6263  349.2984 H   0  0  0  0  0  0  0  0  0  0  0  0
  -63.0830   52.8854  351.2275 H   0  0  0  0  0  0  0  0  0  0  0  0
  -64.0897   52.6038  349.7667 H   0  0  0  0  0  0  0  0  0  0  0  0
  -62.3558   52.1345  349.7667 H   0  0  0  0  0  0  0  0  0  0  0  0
  -56.8046   58.8770  349.5141 H   0  0  0  0  0  0  0  0  0  0  0  0
  -55.7017   58.7470  348.1104 H   0  0  0  0  0  0  0  0  0  0  0  0
  -56.4291   61.6026  348.4110 H   0  0  0  0  0  0  0  0  0  0  0  0
  -54.3553   59.7448  351.3910 H   0  0  0  0  0  0  0  0  0  0  0  0
  -54.8740   58.7750  349.9708 H   0  0  0  0  0  0  0  0  0  0  0  0
  -53.2680   59.5796  349.9708 H   0  0  0  0  0  0  0  0  0  0  0  0
  -55.0459   62.7418  350.6668 H   0  0  0  0  0  0  0  0  0  0  0  0
  -53.3762   61.9672  350.5748 H   0  0  0  0  0  0  0  0  0  0  0  0
  -52.8871   63.4081  348.9806 H   0  0  0  0  0  0  0  0  0  0  0  0
  -54.0618   62.5119  347.9378 H   0  0  0  0  0  0  0  0  0  0  0  0
  -55.7307   64.1285  349.3924 H   0  0  0  0  0  0  0  0  0  0  0  0
  -54.2362   65.1650  349.1859 H   0  0  0  0  0  0  0  0  0  0  0  0
  -55.7261   63.8061  346.9439 H   0  0  0  0  0  0  0  0  0  0  0  0
  -53.2284   65.3672  347.2393 H   0  0  0  0  0  0  0  0  0  0  0  0
  -53.7478   64.2500  345.9321 H   0  0  0  0  0  0  0  0  0  0  0  0
  -54.3107   65.9558  345.9321 H   0  0  0  0  0  0  0  0  0  0  0  0
  -57.2713   65.3875  347.6612 H   0  0  0  0  0  0  0  0  0  0  0  0
  -55.9607   66.6027  348.0321 H   0  0  0  0  0  0  0  0  0  0  0  0
  -56.9156   67.4423  346.1007 H   0  0  0  0  0  0  0  0  0  0  0  0
  -55.4745   66.4783  345.5127 H   0  0  0  0  0  0  0  0  0  0  0  0
  -58.0300   65.0044  345.6257 H   0  0  0  0  0  0  0  0  0  0  0  0
  -57.9371   66.3579  344.4178 H   0  0  0  0  0  0  0  0  0  0  0  0
  -55.6543   64.4506  344.6324 H   0  0  0  0  0  0  0  0  0  0  0  0
  -55.5529   66.4118  343.1134 H   0  0  0  0  0  0  0  0  0  0  0  0
  -55.4486   64.8520  342.2286 H   0  0  0  0  0  0  0  0  0  0  0  0
  -56.9844   65.7835  342.2286 H   0  0  0  0  0  0  0  0  0  0  0  0
  -58.3803   63.6548  344.0973 H   0  0  0  0  0  0  0  0  0  0  0  0
  -57.3863   63.5396  342.5659 H   0  0  0  0  0  0  0  0  0  0  0  0
  -56.3933   62.3375  345.1401 H   0  0  0  0  0  0  0  0  0  0  0  0
  -57.5721   61.4614  344.1061 H   0  0  0  0  0  0  0  0  0  0  0  0
  -55.4026   62.6852  342.5365 H   0  0  0  0  0  0  0  0  0  0  0  0
  -54.7972   61.5183  343.7853 H   0  0  0  0  0  0  0  0  0  0  0  0
  -56.1936   61.0040  341.2556 H   0  0  0  0  0  0  0  0  0  0  0  0
  -57.3761   60.0495  343.8695 H   0  0  0  0  0  0  0  0  0  0  0  0
  -58.2000   60.6595  342.3944 H   0  0  0  0  0  0  0  0  0  0  0  0
  -57.4504   59.0271  342.3944 H   0  0  0  0  0  0  0  0  0  0  0  0
  -54.7329   59.3860  343.3971 H   0  0  0  0  0  0  0  0  0  0  0  0
  -55.3115   58.6966  341.8425 H   0  0  0  0  0  0  0  0  0  0  0  0
  -54.0695   59.9943  341.8425 H   0  0  0  0  0  0  0  0  0  0  0  0
  1  6  1  0
  1 36  2  0
  1 40  1  0
  2  9  2  0
  2 17  1  0
  3 20  1  0
  3 25  2  0
  4 28  1  0
  4 33  2  0
  5  6  2  0
  5  9  1  0
  6  7  1  0
  7  8  1  0
  7 11  1  0
  8  9  1  0
  8 10  1  0
 11 12  1  0
 12 13  1  0
 13 14  2  0
 13 15  1  0
 15 45  1  0
 16 17  1  0
 16 20  1  0
 17 18  2  0
 18 19  1  0
 18 21  1  0
 19 20  2  0
 19 22  1  0
 22 23  2  0
 24 25  1  0
 24 28  2  0
 25 26  1  0
 26 27  2  0
 26 29  1  0
 27 28  1  0
 27 30  1  0
 30 31  1  0
 32 33  1  0
 32 36  1  0
 33 34  1  0
 34 35  2  0
 34 37  1  0
 35 36  1  0
 35 38  1  0
 38 39  2  0
 38 40  1  0
 40 41  1  0
 41 42  2  0
 41 43  1  0
 43 44  1  0
 45 46  1  0
 46 47  2  3
 47 48  1  0
 47 49  1  0
 49 50  1  0
 50 51  1  0
 51 52  1  0
 52 53  1  0
 52 54  1  0
 54 55  1  0
 55 56  1  0
 56 57  1  0
 57 58  1  0
 57 59  1  0
 59 60  1  0
 60 61  1  0
 61 62  1  0
 62 63  1  0
 62 64  1  0
  2 65  1  0
  3 66  1  0
  4 67  1  0
  7 68  1  1
  8 69  1  1
 10 70  1  0
 10 71  1  0
 10 72  1  0
 11 73  1  0
 11 74  1  0
 12 75  1  0
 12 76  1  0
 16 77  1  0
 21 78  1  0
 21 79  1  0
 21 80  1  0
 22 81  1  0
 23 82  1  0
 23 83  1  0
 29 84  1  0
 29 85  1  0
 29 86  1  0
 30 87  1  0
 30 88  1  0
 31 89  1  0
 31 90  1  0
 31 91  1  0
 32 92  1  0
 37 93  1  0
 37 94  1  0
 37 95  1  0
 40 96  1  1
 44 97  1  0
 44 98  1  0
 44 99  1  0
 45100  1  0
 45101  1  0
 46102  1  0
 48103  1  0
 48104  1  0
 48105  1  0
 49106  1  0
 49107  1  0
 50108  1  0
 50109  1  0
 51110  1  0
 51111  1  0
 52112  1  6
 53113  1  0
 53114  1  0
 53115  1  0
 54116  1  0
 54117  1  0
 55118  1  0
 55119  1  0
 56120  1  0
 56121  1  0
 57122  1  1
 58123  1  0
 58124  1  0
 58125  1  0
 59126  1  0
 59127  1  0
 60128  1  0
 60129  1  0
 61130  1  0
 61131  1  0
 62132  1  6
 63133  1  0
 63134  1  0
 63135  1  0
 64136  1  0
 64137  1  0
 64138  1  0
M  END
>  <filename_input>  (22) 
8F4J_PHO_docked.sdf

>  <pdb_id>  (22) 
8F4J_PHO

>  <pose_rank>  (22) 
21

>  <num_atoms_heavy>  (22) 
64

>  <num_torsions>  (22) 
22

>  <pose>  (22) 
[-61.42514219305971, 56.17191986158678, 348.01021212974484, 0.15884829921511814, -2.0901404601144193, -2.1467618044292296, 1.1231821381915443, 2.689670480883827, 0.4694106049377553, -0.7446219687915662, 3.342210815357775, -0.8193830988458644, -0.9218843657853276, 1.2739582732428072, 3.39731644518943, -0.7629785990806534, 1.0742727402374506, -1.4371430099136577, 0.3894447464509301, -0.10989919044061722, -2.3242414371401714, -3.7047497956304394, 1.3321245277514888, -0.23091960102849027, -0.7197215055073304, 1.6766225011234515, 1.385373681107244, -3.302927660018]

>  <energy>  (22) 
-275.30035823283356

>  <inter_energy>  (22) 
-304.9490740260439

>  <intra_energy>  (22) 
34.83957668015192

>  <rmsd>  (22) 
11.8764

>  <sdf_rank>  (22) 
0

$$$$

     RDKit          3D

138143  0  0  0  0  0  0  0  0999 V2000
  -62.8033   56.5967  347.0355 C   0  0  0  0  0  0  0  0  0  0  0  0
  -64.9655   60.5932  345.4357 C   0  0  0  0  0  0  0  0  0  0  0  0
  -64.7962   58.7316  340.8735 C   0  0  0  0  0  0  0  0  0  0  0  0
  -62.7747   54.5680  342.4741 C   0  0  0  0  0  0  0  0  0  0  0  0
  -63.9429   58.4465  345.9674 N   0  0  0  0  0  0  0  0  0  0  0  0
  -63.3229   57.8358  347.0926 C   0  0  0  0  0  0  0  0  0  0  0  0
  -63.4365   58.7163  348.3170 C   0  0  2  0  0  0  0  0  0  0  0  0
  -64.4313   59.8166  347.8408 C   0  0  1  0  0  0  0  0  0  0  0  0
  -64.4340   59.6125  346.3261 C   0  0  0  0  0  0  0  0  0  0  0  0
  -65.7851   59.5776  348.4454 C   0  0  0  0  0  0  0  0  0  0  0  0
  -62.1125   59.2858  348.7652 C   0  0  0  0  0  0  0  0  0  0  0  0
  -61.3851   59.8564  347.5621 C   0  0  0  0  0  0  0  0  0  0  0  0
  -60.2712   60.7368  348.0266 C   0  0  0  0  0  0  0  0  0  0  0  0
  -60.2621   61.5008  348.9946 O   0  0  0  0  0  0  0  0  0  0  0  0
  -59.1634   60.6585  347.2353 O   0  0  0  0  0  0  0  0  0  0  0  0
  -64.6333   59.3688  343.2901 N   0  0  0  0  0  0  0  0  0  0  0  0
  -65.0302   60.4508  344.0828 C   0  0  0  0  0  0  0  0  0  0  0  0
  -65.5787   61.4745  343.1591 C   0  0  0  0  0  0  0  0  0  0  0  0
  -65.5402   60.9633  341.8745 C   0  0  0  0  0  0  0  0  0  0  0  0
  -64.9308   59.5936  341.9265 C   0  0  0  0  0  0  0  0  0  0  0  0
  -66.1034   62.7284  343.6972 C   0  0  0  0  0  0  0  0  0  0  0  0
  -66.0131   61.5040  340.6268 C   0  0  0  0  0  0  0  0  0  0  0  0
  -65.2886   62.2085  339.7605 C   0  0  0  0  0  0  0  0  0  0  0  0
  -63.6479   56.8250  341.9361 N   0  0  0  0  0  0  0  0  0  0  0  0
  -64.1879   57.4226  340.8754 C   0  0  0  0  0  0  0  0  0  0  0  0
  -64.1888   56.4864  339.7044 C   0  0  0  0  0  0  0  0  0  0  0  0
  -63.6724   55.2901  340.1732 C   0  0  0  0  0  0  0  0  0  0  0  0
  -63.2971   55.4906  341.6034 C   0  0  0  0  0  0  0  0  0  0  0  0
  -64.7378   56.7926  338.3793 C   0  0  0  0  0  0  0  0  0  0  0  0
  -63.4619   54.0307  339.4354 C   0  0  0  0  0  0  0  0  0  0  0  0
  -64.6745   53.1098  339.5165 C   0  0  0  0  0  0  0  0  0  0  0  0
  -62.7616   56.0212  344.4973 N   0  0  0  0  0  0  0  0  0  0  0  0
  -62.5136   54.7829  343.8600 C   0  0  0  0  0  0  0  0  0  0  0  0
  -62.0291   53.8502  344.8490 C   0  0  0  0  0  0  0  0  0  0  0  0
  -62.1015   54.5193  346.0915 C   0  0  0  0  0  0  0  0  0  0  0  0
  -62.6139   55.8441  345.8285 C   0  0  0  0  0  0  0  0  0  0  0  0
  -61.5764   52.4721  344.6388 C   0  0  0  0  0  0  0  0  0  0  0  0
  -61.9000   54.3620  347.5161 C   0  0  0  0  0  0  0  0  0  0  0  0
  -61.4755   53.4046  348.1428 O   0  0  0  0  0  0  0  0  0  0  0  0
  -62.3922   55.6879  348.1796 C   0  0  2  0  0  0  0  0  0  0  0  0
  -63.5212   55.3715  349.1228 C   0  0  0  0  0  0  0  0  0  0  0  0
  -63.6435   55.6787  350.3031 O   0  0  0  0  0  0  0  0  0  0  0  0
  -64.5195   54.6234  348.5343 O   0  0  0  0  0  0  0  0  0  0  0  0
  -65.0542   53.5621  349.3158 C   0  0  0  0  0  0  0  0  0  0  0  0
  -57.9249   60.2439  347.8622 C   0  0  0  0  0  0  0  0  0  0  0  0
  -56.9778   61.3902  347.8459 C   0  0  0  0  0  0  0  0  0  0  0  0
  -55.7788   61.2710  348.4221 C   0  0  0  0  0  0  0  0  0  0  0  0
  -55.4281   59.9930  349.0663 C   0  0  0  0  0  0  0  0  0  0  0  0
  -54.7558   62.3663  348.4602 C   0  0  0  0  0  0  0  0  0  0  0  0
  -54.5741   63.1470  347.1524 C   0  0  0  0  0  0  0  0  0  0  0  0
  -54.7356   64.6459  347.3806 C   0  0  0  0  0  0  0  0  0  0  0  0
  -54.7817   65.4667  346.0954 C   0  0  2  0  0  0  0  0  0  0  0  0
  -53.6564   66.4642  346.0787 C   0  0  0  0  0  0  0  0  0  0  0  0
  -56.1203   66.1775  345.8872 C   0  0  0  0  0  0  0  0  0  0  0  0
  -56.7030   65.9713  344.4912 C   0  0  0  0  0  0  0  0  0  0  0  0
  -57.3091   64.5909  344.2704 C   0  0  0  0  0  0  0  0  0  0  0  0
  -56.9824   64.0334  342.8866 C   0  0  2  0  0  0  0  0  0  0  0  0
  -57.5849   64.8673  341.7587 C   0  0  0  0  0  0  0  0  0  0  0  0
  -57.4922   62.6102  342.7661 C   0  0  0  0  0  0  0  0  0  0  0  0
  -56.7347   61.6147  343.6209 C   0  0  0  0  0  0  0  0  0  0  0  0
  -56.1360   60.5306  342.7286 C   0  0  0  0  0  0  0  0  0  0  0  0
  -55.7514   59.2924  343.5271 C   0  0  2  0  0  0  0  0  0  0  0  0
  -55.2408   59.6886  344.8919 C   0  0  0  0  0  0  0  0  0  0  0  0
  -54.6737   58.5489  342.7778 C   0  0  0  0  0  0  0  0  0  0  0  0
  -65.3490   61.5274  345.8718 H   0  0  0  0  0  0  0  0  0  0  0  0
  -65.1995   59.0770  339.9102 H   0  0  0  0  0  0  0  0  0  0  0  0
  -62.5359   53.5743  342.0674 H   0  0  0  0  0  0  0  0  0  0  0  0
  -63.7782   58.1700  349.2084 H   0  0  0  0  0  0  0  0  0  0  0  0
  -64.1595   60.8422  348.1311 H   0  0  0  0  0  0  0  0  0  0  0  0
  -65.7045   59.5919  349.5424 H   0  0  0  0  0  0  0  0  0  0  0  0
  -66.4774   60.3674  348.1184 H   0  0  0  0  0  0  0  0  0  0  0  0
  -66.1651   58.5985  348.1184 H   0  0  0  0  0  0  0  0  0  0  0  0
  -62.2852   60.0829  349.5034 H   0  0  0  0  0  0  0  0  0  0  0  0
  -61.5041   58.4928  349.2245 H   0  0  0  0  0  0  0  0  0  0  0  0
  -60.9750   59.0341  346.9574 H   0  0  0  0  0  0  0  0  0  0  0  0
  -62.0877   60.4438  346.9528 H   0  0  0  0  0  0  0  0  0  0  0  0
  -64.1821   58.5172  343.6535 H   0  0  0  0  0  0  0  0  0  0  0  0
  -66.0876   62.6908  344.7964 H   0  0  0  0  0  0  0  0  0  0  0  0
  -65.4801   63.5657  343.3500 H   0  0  0  0  0  0  0  0  0  0  0  0
  -67.1372   62.8723  343.3500 H   0  0  0  0  0  0  0  0  0  0  0  0
  -67.0656   61.3187  340.3666 H   0  0  0  0  0  0  0  0  0  0  0  0
  -65.7479   62.5776  338.8316 H   0  0  0  0  0  0  0  0  0  0  0  0
  -64.2307   62.4216  339.9734 H   0  0  0  0  0  0  0  0  0  0  0  0
  -65.6933   57.3257  338.4924 H   0  0  0  0  0  0  0  0  0  0  0  0
  -64.0283   57.4253  337.8257 H   0  0  0  0  0  0  0  0  0  0  0  0
  -64.9034   55.8566  337.8257 H   0  0  0  0  0  0  0  0  0  0  0  0
  -63.2656   54.2668  338.3791 H   0  0  0  0  0  0  0  0  0  0  0  0
  -62.6084   53.5085  339.8924 H   0  0  0  0  0  0  0  0  0  0  0  0
  -64.9222   52.9217  340.5716 H   0  0  0  0  0  0  0  0  0  0  0  0
  -65.5313   53.5869  339.0182 H   0  0  0  0  0  0  0  0  0  0  0  0
  -64.4449   52.1564  339.0182 H   0  0  0  0  0  0  0  0  0  0  0  0
  -63.0111   56.9037  344.0284 H   0  0  0  0  0  0  0  0  0  0  0  0
  -61.4167   51.9861  345.6126 H   0  0  0  0  0  0  0  0  0  0  0  0
  -62.3396   51.9177  344.0731 H   0  0  0  0  0  0  0  0  0  0  0  0
  -60.6331   52.4783  344.0731 H   0  0  0  0  0  0  0  0  0  0  0  0
  -61.6212   56.1906  348.7820 H   0  0  0  0  0  0  0  0  0  0  0  0
  -64.9357   53.7974  350.3838 H   0  0  0  0  0  0  0  0  0  0  0  0
  -66.1223   53.4382  349.0840 H   0  0  0  0  0  0  0  0  0  0  0  0
  -64.5181   52.6300  349.0840 H   0  0  0  0  0  0  0  0  0  0  0  0
  -58.1195   59.9387  348.9010 H   0  0  0  0  0  0  0  0  0  0  0  0
  -57.4937   59.3923  347.3155 H   0  0  0  0  0  0  0  0  0  0  0  0
  -57.2641   62.3347  347.3600 H   0  0  0  0  0  0  0  0  0  0  0  0
  -55.4609   60.1123  350.1593 H   0  0  0  0  0  0  0  0  0  0  0  0
  -56.1470   59.2187  348.7602 H   0  0  0  0  0  0  0  0  0  0  0  0
  -54.4148   59.6940  348.7602 H   0  0  0  0  0  0  0  0  0  0  0  0
  -55.0530   63.0803  349.2424 H   0  0  0  0  0  0  0  0  0  0  0  0
  -53.7920   61.8724  348.6531 H   0  0  0  0  0  0  0  0  0  0  0  0
  -53.5679   62.9507  346.7537 H   0  0  0  0  0  0  0  0  0  0  0  0
  -55.3439   62.8174  346.4391 H   0  0  0  0  0  0  0  0  0  0  0  0
  -55.6727   64.8131  347.9319 H   0  0  0  0  0  0  0  0  0  0  0  0
  -53.8499   64.9803  347.9407 H   0  0  0  0  0  0  0  0  0  0  0  0
  -54.6659   64.7590  345.2613 H   0  0  0  0  0  0  0  0  0  0  0  0
  -53.3734   66.7151  347.1117 H   0  0  0  0  0  0  0  0  0  0  0  0
  -52.7906   66.0315  345.5561 H   0  0  0  0  0  0  0  0  0  0  0  0
  -53.9821   67.3757  345.5561 H   0  0  0  0  0  0  0  0  0  0  0  0
  -56.8387   65.7923  346.6257 H   0  0  0  0  0  0  0  0  0  0  0  0
  -55.9389   67.2557  346.0084 H   0  0  0  0  0  0  0  0  0  0  0  0
  -57.4888   66.7239  344.3298 H   0  0  0  0  0  0  0  0  0  0  0  0
  -55.8692   66.0703  343.7805 H   0  0  0  0  0  0  0  0  0  0  0  0
  -56.9124   63.9036  345.0321 H   0  0  0  0  0  0  0  0  0  0  0  0
  -58.4023   64.6852  344.3475 H   0  0  0  0  0  0  0  0  0  0  0  0
  -55.8876   64.0649  342.7848 H   0  0  0  0  0  0  0  0  0  0  0  0
  -58.1784   65.6886  342.1868 H   0  0  0  0  0  0  0  0  0  0  0  0
  -56.7773   65.2831  341.1384 H   0  0  0  0  0  0  0  0  0  0  0  0
  -58.2333   64.2310  341.1384 H   0  0  0  0  0  0  0  0  0  0  0  0
  -58.5495   62.5937  343.0693 H   0  0  0  0  0  0  0  0  0  0  0  0
  -57.3498   62.3065  341.7185 H   0  0  0  0  0  0  0  0  0  0  0  0
  -55.9279   62.1332  344.1598 H   0  0  0  0  0  0  0  0  0  0  0  0
  -57.4228   61.1549  344.3456 H   0  0  0  0  0  0  0  0  0  0  0  0
  -56.8767   60.2473  341.9663 H   0  0  0  0  0  0  0  0  0  0  0  0
  -55.2252   60.9346  342.2626 H   0  0  0  0  0  0  0  0  0  0  0  0
  -56.6343   58.6492  343.6565 H   0  0  0  0  0  0  0  0  0  0  0  0
  -55.8574   59.2102  345.6671 H   0  0  0  0  0  0  0  0  0  0  0  0
  -54.1960   59.3625  345.0013 H   0  0  0  0  0  0  0  0  0  0  0  0
  -55.2972   60.7817  345.0013 H   0  0  0  0  0  0  0  0  0  0  0  0
  -53.9877   58.0757  343.4958 H   0  0  0  0  0  0  0  0  0  0  0  0
  -55.1337   57.7752  342.1456 H   0  0  0  0  0  0  0  0  0  0  0  0
  -54.1137   59.2537  342.1456 H   0  0  0  0  0  0  0  0  0  0  0  0
  1  6  1  0
  1 36  2  0
  1 40  1  0
  2  9  2  0
  2 17  1  0
  3 20  1  0
  3 25  2  0
  4 28  1  0
  4 33  2  0
  5  6  2  0
  5  9  1  0
  6  7  1  0
  7  8  1  0
  7 11  1  0
  8  9  1  0
  8 10  1  0
 11 12  1  0
 12 13  1  0
 13 14  2  0
 13 15  1  0
 15 45  1  0
 16 17  1  0
 16 20  1  0
 17 18  2  0
 18 19  1  0
 18 21  1  0
 19 20  2  0
 19 22  1  0
 22 23  2  0
 24 25  1  0
 24 28  2  0
 25 26  1  0
 26 27  2  0
 26 29  1  0
 27 28  1  0
 27 30  1  0
 30 31  1  0
 32 33  1  0
 32 36  1  0
 33 34  1  0
 34 35  2  0
 34 37  1  0
 35 36  1  0
 35 38  1  0
 38 39  2  0
 38 40  1  0
 40 41  1  0
 41 42  2  0
 41 43  1  0
 43 44  1  0
 45 46  1  0
 46 47  2  3
 47 48  1  0
 47 49  1  0
 49 50  1  0
 50 51  1  0
 51 52  1  0
 52 53  1  0
 52 54  1  0
 54 55  1  0
 55 56  1  0
 56 57  1  0
 57 58  1  0
 57 59  1  0
 59 60  1  0
 60 61  1  0
 61 62  1  0
 62 63  1  0
 62 64  1  0
  2 65  1  0
  3 66  1  0
  4 67  1  0
  7 68  1  1
  8 69  1  6
 10 70  1  0
 10 71  1  0
 10 72  1  0
 11 73  1  0
 11 74  1  0
 12 75  1  0
 12 76  1  0
 16 77  1  0
 21 78  1  0
 21 79  1  0
 21 80  1  0
 22 81  1  0
 23 82  1  0
 23 83  1  0
 29 84  1  0
 29 85  1  0
 29 86  1  0
 30 87  1  0
 30 88  1  0
 31 89  1  0
 31 90  1  0
 31 91  1  0
 32 92  1  0
 37 93  1  0
 37 94  1  0
 37 95  1  0
 40 96  1  1
 44 97  1  0
 44 98  1  0
 44 99  1  0
 45100  1  0
 45101  1  0
 46102  1  0
 48103  1  0
 48104  1  0
 48105  1  0
 49106  1  0
 49107  1  0
 50108  1  0
 50109  1  0
 51110  1  0
 51111  1  0
 52112  1  6
 53113  1  0
 53114  1  0
 53115  1  0
 54116  1  0
 54117  1  0
 55118  1  0
 55119  1  0
 56120  1  0
 56121  1  0
 57122  1  6
 58123  1  0
 58124  1  0
 58125  1  0
 59126  1  0
 59127  1  0
 60128  1  0
 60129  1  0
 61130  1  0
 61131  1  0
 62132  1  1
 63133  1  0
 63134  1  0
 63135  1  0
 64136  1  0
 64137  1  0
 64138  1  0
M  END
>  <filename_input>  (23) 
8F4J_PHO_docked.sdf

>  <pdb_id>  (23) 
8F4J_PHO

>  <pose_rank>  (23) 
22

>  <num_atoms_heavy>  (23) 
64

>  <num_torsions>  (23) 
22

>  <pose>  (23) 
[-62.803252418393186, 56.59665671402062, 347.0354930259061, 0.41691950593094745, -2.4039618344647145, -2.103284168411243, 1.2334849462527804, 2.7994303543790244, 0.6915104930021186, -0.6101424959569787, 4.077729237225042, -0.3585959997341651, -0.9100582331426961, 0.7551379795324151, 2.901746402896191, -0.7987683029319445, 1.2385104801191817, -1.1921510421238672, -0.16889184855384132, -1.0818439741085804, -1.2069199083812876, -3.8088144842004956, 0.5981790841399536, 0.1504494427688271, 0.10515645213041964, 0.9533386672419157, 0.44607839322230775, -3.7361433939569464]

>  <energy>  (23) 
-339.5756880486399

>  <inter_energy>  (23) 
-353.15409929702

>  <intra_energy>  (23) 
15.21930883595978

>  <rmsd>  (23) 
12.2417

>  <sdf_rank>  (23) 
0

$$$$

     RDKit          3D

138143  0  0  0  0  0  0  0  0999 V2000
  -55.4921   64.0378  349.5891 C   0  0  0  0  0  0  0  0  0  0  0  0
  -59.9931   65.7527  349.5078 C   0  0  0  0  0  0  0  0  0  0  0  0
  -60.3069   64.8626  354.3469 C   0  0  0  0  0  0  0  0  0  0  0  0
  -55.6715   63.2921  354.5221 C   0  0  0  0  0  0  0  0  0  0  0  0
  -57.7336   64.9117  349.8600 N   0  0  0  0  0  0  0  0  0  0  0  0
  -56.6297   64.5165  349.0547 C   0  0  0  0  0  0  0  0  0  0  0  0
  -56.8929   64.8094  347.5945 C   0  0  2  0  0  0  0  0  0  0  0  0
  -58.1908   65.6687  347.6592 C   0  0  1  0  0  0  0  0  0  0  0  0
  -58.6709   65.4170  349.0882 C   0  0  0  0  0  0  0  0  0  0  0  0
  -57.8591   67.1140  347.4211 C   0  0  0  0  0  0  0  0  0  0  0  0
  -57.0627   63.5639  346.7590 C   0  0  0  0  0  0  0  0  0  0  0  0
  -56.0697   63.5966  345.6123 C   0  0  0  0  0  0  0  0  0  0  0  0
  -56.7481   64.1044  344.3820 C   0  0  0  0  0  0  0  0  0  0  0  0
  -57.7030   64.8813  344.3088 O   0  0  0  0  0  0  0  0  0  0  0  0
  -56.2168   63.5991  343.2323 O   0  0  0  0  0  0  0  0  0  0  0  0
  -59.8019   65.0975  351.9051 N   0  0  0  0  0  0  0  0  0  0  0  0
  -60.4644   65.5878  350.7749 C   0  0  0  0  0  0  0  0  0  0  0  0
  -61.8414   65.9331  351.2070 C   0  0  0  0  0  0  0  0  0  0  0  0
  -61.9422   65.6911  352.5651 C   0  0  0  0  0  0  0  0  0  0  0  0
  -60.6308   65.1472  353.0493 C   0  0  0  0  0  0  0  0  0  0  0  0
  -62.7824   66.4993  350.2421 C   0  0  0  0  0  0  0  0  0  0  0  0
  -63.0214   65.9226  353.4894 C   0  0  0  0  0  0  0  0  0  0  0  0
  -63.4734   67.1139  353.8742 C   0  0  0  0  0  0  0  0  0  0  0  0
  -58.0161   63.9812  354.1052 N   0  0  0  0  0  0  0  0  0  0  0  0
  -59.0716   64.3092  354.8483 C   0  0  0  0  0  0  0  0  0  0  0  0
  -58.7476   64.1402  356.3024 C   0  0  0  0  0  0  0  0  0  0  0  0
  -57.4188   63.7538  356.3537 C   0  0  0  0  0  0  0  0  0  0  0  0
  -56.9323   63.6244  354.9492 C   0  0  0  0  0  0  0  0  0  0  0  0
  -59.6595   64.4413  357.4109 C   0  0  0  0  0  0  0  0  0  0  0  0
  -56.5941   63.4626  357.5411 C   0  0  0  0  0  0  0  0  0  0  0  0
  -56.9238   62.1031  358.1480 C   0  0  0  0  0  0  0  0  0  0  0  0
  -56.0833   63.5784  352.0820 N   0  0  0  0  0  0  0  0  0  0  0  0
  -55.2294   63.2669  353.1660 C   0  0  0  0  0  0  0  0  0  0  0  0
  -53.9120   62.9928  352.6443 C   0  0  0  0  0  0  0  0  0  0  0  0
  -53.9741   63.2555  351.2573 C   0  0  0  0  0  0  0  0  0  0  0  0
  -55.3273   63.6690  350.9659 C   0  0  0  0  0  0  0  0  0  0  0  0
  -52.7245   62.5583  353.3855 C   0  0  0  0  0  0  0  0  0  0  0  0
  -53.1893   63.3084  350.0424 C   0  0  0  0  0  0  0  0  0  0  0  0
  -52.0147   63.0317  349.8600 O   0  0  0  0  0  0  0  0  0  0  0  0
  -54.1362   63.8618  348.9300 C   0  0  2  0  0  0  0  0  0  0  0  0
  -53.5631   65.1469  348.3965 C   0  0  0  0  0  0  0  0  0  0  0  0
  -53.4291   66.2227  348.9684 O   0  0  0  0  0  0  0  0  0  0  0  0
  -53.1618   65.0508  347.0803 O   0  0  0  0  0  0  0  0  0  0  0  0
  -53.6095   66.0822  346.2092 C   0  0  0  0  0  0  0  0  0  0  0  0
  -56.9115   62.4918  342.6078 C   0  0  0  0  0  0  0  0  0  0  0  0
  -55.9544   61.3665  342.4375 C   0  0  0  0  0  0  0  0  0  0  0  0
  -56.1240   60.2379  343.1312 C   0  0  0  0  0  0  0  0  0  0  0  0
  -57.2663   60.1422  344.0570 C   0  0  0  0  0  0  0  0  0  0  0  0
  -55.2154   59.0495  343.0314 C   0  0  0  0  0  0  0  0  0  0  0  0
  -54.4355   58.7046  344.3064 C   0  0  0  0  0  0  0  0  0  0  0  0
  -54.8737   57.3577  344.8708 C   0  0  0  0  0  0  0  0  0  0  0  0
  -55.2690   57.4023  346.3438 C   0  0  2  0  0  0  0  0  0  0  0  0
  -54.0501   57.6098  347.1998 C   0  0  0  0  0  0  0  0  0  0  0  0
  -56.0266   56.1533  346.7979 C   0  0  0  0  0  0  0  0  0  0  0  0
  -57.3622   56.4671  347.4676 C   0  0  0  0  0  0  0  0  0  0  0  0
  -58.2236   55.2396  347.7378 C   0  0  0  0  0  0  0  0  0  0  0  0
  -59.3959   55.5518  348.6654 C   0  0  2  0  0  0  0  0  0  0  0  0
  -59.4504   54.6252  349.8774 C   0  0  0  0  0  0  0  0  0  0  0  0
  -60.7038   55.4383  347.9062 C   0  0  0  0  0  0  0  0  0  0  0  0
  -61.6659   56.5782  348.1716 C   0  0  0  0  0  0  0  0  0  0  0  0
  -62.8696   56.4543  347.2411 C   0  0  0  0  0  0  0  0  0  0  0  0
  -63.9623   57.4533  347.5972 C   0  0  2  0  0  0  0  0  0  0  0  0
  -63.7682   58.7369  346.8260 C   0  0  0  0  0  0  0  0  0  0  0  0
  -63.8963   57.7354  349.0777 C   0  0  0  0  0  0  0  0  0  0  0  0
  -60.6780   66.1734  348.7568 H   0  0  0  0  0  0  0  0  0  0  0  0
  -61.0799   65.0815  355.0983 H   0  0  0  0  0  0  0  0  0  0  0  0
  -54.9362   63.0210  355.2940 H   0  0  0  0  0  0  0  0  0  0  0  0
  -56.0523   65.3185  347.1004 H   0  0  0  0  0  0  0  0  0  0  0  0
  -58.9504   65.4160  346.9047 H   0  0  0  0  0  0  0  0  0  0  0  0
  -57.7413   67.6270  348.3870 H   0  0  0  0  0  0  0  0  0  0  0  0
  -56.9211   67.1858  346.8510 H   0  0  0  0  0  0  0  0  0  0  0  0
  -58.6719   67.5876  346.8510 H   0  0  0  0  0  0  0  0  0  0  0  0
  -56.8785   62.6753  347.3807 H   0  0  0  0  0  0  0  0  0  0  0  0
  -58.0873   63.5211  346.3611 H   0  0  0  0  0  0  0  0  0  0  0  0
  -55.2326   64.2617  345.8707 H   0  0  0  0  0  0  0  0  0  0  0  0
  -55.6876   62.5816  345.4284 H   0  0  0  0  0  0  0  0  0  0  0  0
  -58.8340   64.7453  351.9039 H   0  0  0  0  0  0  0  0  0  0  0  0
  -63.6049   66.9943  350.7792 H   0  0  0  0  0  0  0  0  0  0  0  0
  -62.2621   67.2344  349.6106 H   0  0  0  0  0  0  0  0  0  0  0  0
  -63.1882   65.6953  349.6106 H   0  0  0  0  0  0  0  0  0  0  0  0
  -63.5160   65.0370  353.9150 H   0  0  0  0  0  0  0  0  0  0  0  0
  -64.3072   67.1813  354.5885 H   0  0  0  0  0  0  0  0  0  0  0  0
  -63.0132   68.0310  353.4779 H   0  0  0  0  0  0  0  0  0  0  0  0
  -59.1432   64.2708  358.3671 H   0  0  0  0  0  0  0  0  0  0  0  0
  -59.9781   65.4923  357.3485 H   0  0  0  0  0  0  0  0  0  0  0  0
  -60.5413   63.7866  357.3485 H   0  0  0  0  0  0  0  0  0  0  0  0
  -55.5340   63.4726  357.2479 H   0  0  0  0  0  0  0  0  0  0  0  0
  -56.8057   64.2322  358.2980 H   0  0  0  0  0  0  0  0  0  0  0  0
  -56.9058   62.1774  359.2454 H   0  0  0  0  0  0  0  0  0  0  0  0
  -57.9246   61.7873  357.8183 H   0  0  0  0  0  0  0  0  0  0  0  0
  -56.1789   61.3639  357.8183 H   0  0  0  0  0  0  0  0  0  0  0  0
  -57.1031   63.7128  352.1345 H   0  0  0  0  0  0  0  0  0  0  0  0
  -52.9200   62.6298  354.4656 H   0  0  0  0  0  0  0  0  0  0  0  0
  -52.4898   61.5160  353.1236 H   0  0  0  0  0  0  0  0  0  0  0  0
  -51.8726   63.2029  353.1236 H   0  0  0  0  0  0  0  0  0  0  0  0
  -54.2386   63.1896  348.0654 H   0  0  0  0  0  0  0  0  0  0  0  0
  -53.9778   66.9307  346.8044 H   0  0  0  0  0  0  0  0  0  0  0  0
  -52.7745   66.4143  345.5747 H   0  0  0  0  0  0  0  0  0  0  0  0
  -54.4223   65.6991  345.5747 H   0  0  0  0  0  0  0  0  0  0  0  0
  -57.7490   62.1726  343.2457 H   0  0  0  0  0  0  0  0  0  0  0  0
  -57.3068   62.8003  341.6288 H   0  0  0  0  0  0  0  0  0  0  0  0
  -55.1082   61.4635  341.7413 H   0  0  0  0  0  0  0  0  0  0  0  0
  -56.9012   60.1727  345.0942 H   0  0  0  0  0  0  0  0  0  0  0  0
  -57.9502   60.9861  343.8840 H   0  0  0  0  0  0  0  0  0  0  0  0
  -57.8002   59.1961  343.8840 H   0  0  0  0  0  0  0  0  0  0  0  0
  -55.8280   58.1763  342.7624 H   0  0  0  0  0  0  0  0  0  0  0  0
  -54.4591   59.3105  342.2765 H   0  0  0  0  0  0  0  0  0  0  0  0
  -53.3618   58.6632  344.0706 H   0  0  0  0  0  0  0  0  0  0  0  0
  -54.6363   59.4809  345.0594 H   0  0  0  0  0  0  0  0  0  0  0  0
  -55.7389   57.0043  344.2908 H   0  0  0  0  0  0  0  0  0  0  0  0
  -54.0084   56.6829  344.7934 H   0  0  0  0  0  0  0  0  0  0  0  0
  -55.9581   58.2514  346.4629 H   0  0  0  0  0  0  0  0  0  0  0  0
  -54.3349   57.5614  348.2612 H   0  0  0  0  0  0  0  0  0  0  0  0
  -53.3112   56.8246  346.9822 H   0  0  0  0  0  0  0  0  0  0  0  0
  -53.6127   58.5954  346.9822 H   0  0  0  0  0  0  0  0  0  0  0  0
  -56.2173   55.5214  345.9179 H   0  0  0  0  0  0  0  0  0  0  0  0
  -55.3991   55.6453  347.5449 H   0  0  0  0  0  0  0  0  0  0  0  0
  -57.1593   56.9653  348.4272 H   0  0  0  0  0  0  0  0  0  0  0  0
  -57.9259   57.1043  346.7704 H   0  0  0  0  0  0  0  0  0  0  0  0
  -58.6182   54.8661  346.7813 H   0  0  0  0  0  0  0  0  0  0  0  0
  -57.5928   54.4859  348.2317 H   0  0  0  0  0  0  0  0  0  0  0  0
  -59.2446   56.5787  349.0295 H   0  0  0  0  0  0  0  0  0  0  0  0
  -59.4151   55.2245  350.7991 H   0  0  0  0  0  0  0  0  0  0  0  0
  -60.3842   54.0444  349.8532 H   0  0  0  0  0  0  0  0  0  0  0  0
  -58.5910   53.9389  349.8532 H   0  0  0  0  0  0  0  0  0  0  0  0
  -60.4792   55.4176  346.8296 H   0  0  0  0  0  0  0  0  0  0  0  0
  -61.1957   54.5170  348.2516 H   0  0  0  0  0  0  0  0  0  0  0  0
  -62.0048   56.5363  349.2172 H   0  0  0  0  0  0  0  0  0  0  0  0
  -61.1582   57.5368  347.9892 H   0  0  0  0  0  0  0  0  0  0  0  0
  -62.5415   56.6385  346.2075 H   0  0  0  0  0  0  0  0  0  0  0  0
  -63.2833   55.4408  347.3490 H   0  0  0  0  0  0  0  0  0  0  0  0
  -64.9446   57.0327  347.3359 H   0  0  0  0  0  0  0  0  0  0  0  0
  -63.6419   59.5724  347.5303 H   0  0  0  0  0  0  0  0  0  0  0  0
  -62.8727   58.6525  346.1929 H   0  0  0  0  0  0  0  0  0  0  0  0
  -64.6488   58.9210  346.1929 H   0  0  0  0  0  0  0  0  0  0  0  0
  -64.1122   56.8129  349.6367 H   0  0  0  0  0  0  0  0  0  0  0  0
  -62.8897   58.0947  349.3379 H   0  0  0  0  0  0  0  0  0  0  0  0
  -64.6388   58.5041  349.3379 H   0  0  0  0  0  0  0  0  0  0  0  0
  1  6  1  0
  1 36  2  0
  1 40  1  0
  2  9  2  0
  2 17  1  0
  3 20  1  0
  3 25  2  0
  4 28  1  0
  4 33  2  0
  5  6  2  0
  5  9  1  0
  6  7  1  0
  7  8  1  0
  7 11  1  0
  8  9  1  0
  8 10  1  0
 11 12  1  0
 12 13  1  0
 13 14  2  0
 13 15  1  0
 15 45  1  0
 16 17  1  0
 16 20  1  0
 17 18  2  0
 18 19  1  0
 18 21  1  0
 19 20  2  0
 19 22  1  0
 22 23  2  0
 24 25  1  0
 24 28  2  0
 25 26  1  0
 26 27  2  0
 26 29  1  0
 27 28  1  0
 27 30  1  0
 30 31  1  0
 32 33  1  0
 32 36  1  0
 33 34  1  0
 34 35  2  0
 34 37  1  0
 35 36  1  0
 35 38  1  0
 38 39  2  0
 38 40  1  0
 40 41  1  0
 41 42  2  0
 41 43  1  0
 43 44  1  0
 45 46  1  0
 46 47  2  3
 47 48  1  0
 47 49  1  0
 49 50  1  0
 50 51  1  0
 51 52  1  0
 52 53  1  0
 52 54  1  0
 54 55  1  0
 55 56  1  0
 56 57  1  0
 57 58  1  0
 57 59  1  0
 59 60  1  0
 60 61  1  0
 61 62  1  0
 62 63  1  0
 62 64  1  0
  2 65  1  0
  3 66  1  0
  4 67  1  0
  7 68  1  6
  8 69  1  6
 10 70  1  0
 10 71  1  0
 10 72  1  0
 11 73  1  0
 11 74  1  0
 12 75  1  0
 12 76  1  0
 16 77  1  0
 21 78  1  0
 21 79  1  0
 21 80  1  0
 22 81  1  0
 23 82  1  0
 23 83  1  0
 29 84  1  0
 29 85  1  0
 29 86  1  0
 30 87  1  0
 30 88  1  0
 31 89  1  0
 31 90  1  0
 31 91  1  0
 32 92  1  0
 37 93  1  0
 37 94  1  0
 37 95  1  0
 40 96  1  6
 44 97  1  0
 44 98  1  0
 44 99  1  0
 45100  1  0
 45101  1  0
 46102  1  0
 48103  1  0
 48104  1  0
 48105  1  0
 49106  1  0
 49107  1  0
 50108  1  0
 50109  1  0
 51110  1  0
 51111  1  0
 52112  1  6
 53113  1  0
 53114  1  0
 53115  1  0
 54116  1  0
 54117  1  0
 55118  1  0
 55119  1  0
 56120  1  0
 56121  1  0
 57122  1  1
 58123  1  0
 58124  1  0
 58125  1  0
 59126  1  0
 59127  1  0
 60128  1  0
 60129  1  0
 61130  1  0
 61131  1  0
 62132  1  1
 63133  1  0
 63134  1  0
 63135  1  0
 64136  1  0
 64137  1  0
 64138  1  0
M  END
>  <filename_input>  (24) 
8F4J_PHO_docked.sdf

>  <pdb_id>  (24) 
8F4J_PHO

>  <pose_rank>  (24) 
23

>  <num_atoms_heavy>  (24) 
64

>  <num_torsions>  (24) 
22

>  <pose>  (24) 
[-55.49208429240968, 64.03777723094557, 349.5890987229451, 2.2040325998760815, 3.25271486334776, -1.4971579813021259, -1.5857799150732177, -0.5758491958403273, 3.5811167682118574, -0.723603299074311, 1.0787071623932518, -4.938015130800859, -6.038854866097503, 10.887840876886713, 8.983126620965718, 4.368579222983908, -8.570092309278508, 4.8869070440607745, 0.5934538684719225, -0.21805929134433974, 5.156509949494377, -2.1313976642649637, -0.3246452789100384, 5.346370059652551, 5.240479055028785, 6.0940738920082405, -0.01119470455659422, -1.5318474761993977]

>  <energy>  (24) 
-262.44748931181687

>  <inter_energy>  (24) 
-262.7005069056932

>  <intra_energy>  (24) 
4.405565854336811

>  <rmsd>  (24) 
10.7844

>  <sdf_rank>  (24) 
0

$$$$

     RDKit          3D

138143  0  0  0  0  0  0  0  0999 V2000
  -54.0950   65.5725  347.1551 C   0  0  0  0  0  0  0  0  0  0  0  0
  -56.7028   62.3301  344.7275 C   0  0  0  0  0  0  0  0  0  0  0  0
  -52.9613   61.8547  341.5522 C   0  0  0  0  0  0  0  0  0  0  0  0
  -50.1948   64.9975  344.0924 C   0  0  0  0  0  0  0  0  0  0  0  0
  -55.1389   63.8661  345.7912 N   0  0  0  0  0  0  0  0  0  0  0  0
  -55.1721   64.8345  346.8326 C   0  0  0  0  0  0  0  0  0  0  0  0
  -56.5068   64.8187  347.5437 C   0  0  2  0  0  0  0  0  0  0  0  0
  -57.1753   63.5375  346.9618 C   0  0  1  0  0  0  0  0  0  0  0  0
  -56.2935   63.2380  345.7499 C   0  0  0  0  0  0  0  0  0  0  0  0
  -57.1329   62.4325  347.9781 C   0  0  0  0  0  0  0  0  0  0  0  0
  -57.3260   66.0626  347.2994 C   0  0  0  0  0  0  0  0  0  0  0  0
  -58.6955   65.6614  346.7839 C   0  0  0  0  0  0  0  0  0  0  0  0
  -59.6910   65.7546  347.8938 C   0  0  0  0  0  0  0  0  0  0  0  0
  -60.7420   65.1229  348.0243 O   0  0  0  0  0  0  0  0  0  0  0  0
  -59.3533   66.6791  348.8376 O   0  0  0  0  0  0  0  0  0  0  0  0
  -54.6561   62.4191  343.3077 N   0  0  0  0  0  0  0  0  0  0  0  0
  -55.9454   61.9952  343.6464 C   0  0  0  0  0  0  0  0  0  0  0  0
  -56.3758   61.0547  342.5822 C   0  0  0  0  0  0  0  0  0  0  0  0
  -55.3329   60.9094  341.6854 C   0  0  0  0  0  0  0  0  0  0  0  0
  -54.1985   61.7842  342.1304 C   0  0  0  0  0  0  0  0  0  0  0  0
  -57.6883   60.4166  342.6674 C   0  0  0  0  0  0  0  0  0  0  0  0
  -55.1934   60.0682  340.5254 C   0  0  0  0  0  0  0  0  0  0  0  0
  -56.1599   59.3381  339.9737 C   0  0  0  0  0  0  0  0  0  0  0  0
  -51.8654   63.5796  342.9329 N   0  0  0  0  0  0  0  0  0  0  0  0
  -51.8571   62.7046  341.9289 C   0  0  0  0  0  0  0  0  0  0  0  0
  -50.4885   62.6348  341.3207 C   0  0  0  0  0  0  0  0  0  0  0  0
  -49.6925   63.4786  342.0770 C   0  0  0  0  0  0  0  0  0  0  0  0
  -50.5626   64.1146  343.1088 C   0  0  0  0  0  0  0  0  0  0  0  0
  -50.0999   61.7522  340.2156 C   0  0  0  0  0  0  0  0  0  0  0  0
  -48.2568   63.7738  341.9149 C   0  0  0  0  0  0  0  0  0  0  0  0
  -47.3799   62.7960  342.6896 C   0  0  0  0  0  0  0  0  0  0  0  0
  -52.4152   65.1629  345.2094 N   0  0  0  0  0  0  0  0  0  0  0  0
  -51.0476   65.5120  345.1136 C   0  0  0  0  0  0  0  0  0  0  0  0
  -50.7225   66.3873  346.2140 C   0  0  0  0  0  0  0  0  0  0  0  0
  -51.8824   66.4583  347.0180 C   0  0  0  0  0  0  0  0  0  0  0  0
  -52.8875   65.6380  346.3827 C   0  0  0  0  0  0  0  0  0  0  0  0
  -49.4463   67.0559  346.4837 C   0  0  0  0  0  0  0  0  0  0  0  0
  -52.4200   67.0015  348.2472 C   0  0  0  0  0  0  0  0  0  0  0  0
  -51.9002   67.7436  349.0649 O   0  0  0  0  0  0  0  0  0  0  0  0
  -53.8567   66.4075  348.3999 C   0  0  2  0  0  0  0  0  0  0  0  0
  -53.9212   65.6085  349.6734 C   0  0  0  0  0  0  0  0  0  0  0  0
  -53.7788   64.4012  349.8294 O   0  0  0  0  0  0  0  0  0  0  0  0
  -54.1918   66.3842  350.7815 O   0  0  0  0  0  0  0  0  0  0  0  0
  -55.1685   67.4042  350.6121 C   0  0  0  0  0  0  0  0  0  0  0  0
  -60.4179   67.1999  349.6708 C   0  0  0  0  0  0  0  0  0  0  0  0
  -60.1855   66.7555  351.0707 C   0  0  0  0  0  0  0  0  0  0  0  0
  -61.1904   66.7740  351.9503 C   0  0  0  0  0  0  0  0  0  0  0  0
  -62.5136   67.2422  351.5019 C   0  0  0  0  0  0  0  0  0  0  0  0
  -61.0578   66.3481  353.3817 C   0  0  0  0  0  0  0  0  0  0  0  0
  -60.5113   64.9320  353.6022 C   0  0  0  0  0  0  0  0  0  0  0  0
  -61.5162   64.0665  354.3544 C   0  0  0  0  0  0  0  0  0  0  0  0
  -61.1606   62.5830  354.3781 C   0  0  2  0  0  0  0  0  0  0  0  0
  -59.9228   62.3615  355.2030 C   0  0  0  0  0  0  0  0  0  0  0  0
  -60.9765   61.9895  352.9802 C   0  0  0  0  0  0  0  0  0  0  0  0
  -60.2756   60.6333  352.9872 C   0  0  0  0  0  0  0  0  0  0  0  0
  -61.0633   59.5251  352.2993 C   0  0  0  0  0  0  0  0  0  0  0  0
  -60.1867   58.6860  351.3721 C   0  0  2  0  0  0  0  0  0  0  0  0
  -60.5880   58.8164  349.9050 C   0  0  0  0  0  0  0  0  0  0  0  0
  -60.2605   57.2242  351.7693 C   0  0  0  0  0  0  0  0  0  0  0  0
  -59.5922   56.9157  353.0936 C   0  0  0  0  0  0  0  0  0  0  0  0
  -59.4734   55.4034  353.2628 C   0  0  0  0  0  0  0  0  0  0  0  0
  -59.1701   55.0197  354.7048 C   0  0  2  0  0  0  0  0  0  0  0  0
  -59.3347   56.2174  355.6097 C   0  0  0  0  0  0  0  0  0  0  0  0
  -57.7506   54.5153  354.7831 C   0  0  0  0  0  0  0  0  0  0  0  0
  -57.6976   61.8697  344.8190 H   0  0  0  0  0  0  0  0  0  0  0  0
  -52.7867   61.1836  340.6983 H   0  0  0  0  0  0  0  0  0  0  0  0
  -49.1491   65.3390  344.0937 H   0  0  0  0  0  0  0  0  0  0  0  0
  -56.4094   64.8053  348.6393 H   0  0  0  0  0  0  0  0  0  0  0  0
  -58.2372   63.6497  346.6976 H   0  0  0  0  0  0  0  0  0  0  0  0
  -57.1495   62.8640  348.9898 H   0  0  0  0  0  0  0  0  0  0  0  0
  -58.0065   61.7776  347.8444 H   0  0  0  0  0  0  0  0  0  0  0  0
  -56.2116   61.8466  347.8444 H   0  0  0  0  0  0  0  0  0  0  0  0
  -57.4358   66.6221  348.2402 H   0  0  0  0  0  0  0  0  0  0  0  0
  -56.8220   66.6986  346.5568 H   0  0  0  0  0  0  0  0  0  0  0  0
  -58.9922   66.3360  345.9674 H   0  0  0  0  0  0  0  0  0  0  0  0
  -58.6585   64.6277  346.4097 H   0  0  0  0  0  0  0  0  0  0  0  0
  -54.1100   63.1059  343.8470 H   0  0  0  0  0  0  0  0  0  0  0  0
  -57.9631   60.2830  343.7241 H   0  0  0  0  0  0  0  0  0  0  0  0
  -58.4374   61.0511  342.1712 H   0  0  0  0  0  0  0  0  0  0  0  0
  -57.6520   59.4356  342.1712 H   0  0  0  0  0  0  0  0  0  0  0  0
  -54.2006   60.0251  340.0536 H   0  0  0  0  0  0  0  0  0  0  0  0
  -55.9477   58.7267  339.0842 H   0  0  0  0  0  0  0  0  0  0  0  0
  -57.1708   59.3461  340.4072 H   0  0  0  0  0  0  0  0  0  0  0  0
  -49.6879   60.8165  340.6213 H   0  0  0  0  0  0  0  0  0  0  0  0
  -50.9822   61.5272  339.5984 H   0  0  0  0  0  0  0  0  0  0  0  0
  -49.3382   62.2511  339.5984 H   0  0  0  0  0  0  0  0  0  0  0  0
  -48.0000   63.7115  340.8471 H   0  0  0  0  0  0  0  0  0  0  0  0
  -48.0713   64.7830  342.3113 H   0  0  0  0  0  0  0  0  0  0  0  0
  -47.5208   62.9531  343.7692 H   0  0  0  0  0  0  0  0  0  0  0  0
  -47.6618   61.7651  342.4292 H   0  0  0  0  0  0  0  0  0  0  0  0
  -46.3245   62.9644  342.4292 H   0  0  0  0  0  0  0  0  0  0  0  0
  -52.9562   64.6382  344.5074 H   0  0  0  0  0  0  0  0  0  0  0  0
  -49.2961   67.1346  347.5705 H   0  0  0  0  0  0  0  0  0  0  0  0
  -48.6258   66.4718  346.0414 H   0  0  0  0  0  0  0  0  0  0  0  0
  -49.4594   68.0630  346.0414 H   0  0  0  0  0  0  0  0  0  0  0  0
  -54.6428   67.1730  348.4781 H   0  0  0  0  0  0  0  0  0  0  0  0
  -55.5057   67.7564  351.5982 H   0  0  0  0  0  0  0  0  0  0  0  0
  -54.7289   68.2438  350.0536 H   0  0  0  0  0  0  0  0  0  0  0  0
  -56.0263   67.0014  350.0536 H   0  0  0  0  0  0  0  0  0  0  0  0
  -60.4193   68.2990  349.6263 H   0  0  0  0  0  0  0  0  0  0  0  0
  -61.3899   66.8277  349.3148 H   0  0  0  0  0  0  0  0  0  0  0  0
  -59.1877   66.4121  351.3813 H   0  0  0  0  0  0  0  0  0  0  0  0
  -63.1404   67.4640  352.3782 H   0  0  0  0  0  0  0  0  0  0  0  0
  -62.3945   68.1528  350.8964 H   0  0  0  0  0  0  0  0  0  0  0  0
  -62.9937   66.4594  350.8964 H   0  0  0  0  0  0  0  0  0  0  0  0
  -60.3806   67.0546  353.8840 H   0  0  0  0  0  0  0  0  0  0  0  0
  -62.0788   66.3446  353.7911 H   0  0  0  0  0  0  0  0  0  0  0  0
  -60.3012   64.4719  352.6254 H   0  0  0  0  0  0  0  0  0  0  0  0
  -59.5922   65.0019  354.2025 H   0  0  0  0  0  0  0  0  0  0  0  0
  -61.5732   64.4253  355.3927 H   0  0  0  0  0  0  0  0  0  0  0  0
  -62.4750   64.1560  353.8227 H   0  0  0  0  0  0  0  0  0  0  0  0
  -62.0128   62.0586  354.8350 H   0  0  0  0  0  0  0  0  0  0  0  0
  -60.1810   62.4077  356.2713 H   0  0  0  0  0  0  0  0  0  0  0  0
  -59.4993   61.3732  354.9706 H   0  0  0  0  0  0  0  0  0  0  0  0
  -59.1828   63.1414  354.9706 H   0  0  0  0  0  0  0  0  0  0  0  0
  -61.9678   61.8678  352.5192 H   0  0  0  0  0  0  0  0  0  0  0  0
  -60.3381   62.6831  352.4133 H   0  0  0  0  0  0  0  0  0  0  0  0
  -59.3090   60.7408  352.4734 H   0  0  0  0  0  0  0  0  0  0  0  0
  -60.1647   60.3379  354.0410 H   0  0  0  0  0  0  0  0  0  0  0  0
  -61.4963   58.8683  353.0681 H   0  0  0  0  0  0  0  0  0  0  0  0
  -61.8473   59.9965  351.6885 H   0  0  0  0  0  0  0  0  0  0  0  0
  -59.1604   59.0672  351.4787 H   0  0  0  0  0  0  0  0  0  0  0  0
  -61.6324   59.1556  349.8394 H   0  0  0  0  0  0  0  0  0  0  0  0
  -59.9330   59.5479  349.4093 H   0  0  0  0  0  0  0  0  0  0  0  0
  -60.4880   57.8395  349.4093 H   0  0  0  0  0  0  0  0  0  0  0  0
  -61.3200   56.9373  351.8405 H   0  0  0  0  0  0  0  0  0  0  0  0
  -59.7210   56.6550  350.9980 H   0  0  0  0  0  0  0  0  0  0  0  0
  -58.5891   57.3668  353.1120 H   0  0  0  0  0  0  0  0  0  0  0  0
  -60.1956   57.3305  353.9145 H   0  0  0  0  0  0  0  0  0  0  0  0
  -60.4222   54.9354  352.9614 H   0  0  0  0  0  0  0  0  0  0  0  0
  -58.6429   55.0522  352.6328 H   0  0  0  0  0  0  0  0  0  0  0  0
  -59.8687   54.2353  355.0314 H   0  0  0  0  0  0  0  0  0  0  0  0
  -59.2901   55.8926  356.6597 H   0  0  0  0  0  0  0  0  0  0  0  0
  -58.5272   56.9383  355.4143 H   0  0  0  0  0  0  0  0  0  0  0  0
  -60.3068   56.6938  355.4143 H   0  0  0  0  0  0  0  0  0  0  0  0
  -57.4563   54.4107  355.8378 H   0  0  0  0  0  0  0  0  0  0  0  0
  -57.6809   53.5374  354.2843 H   0  0  0  0  0  0  0  0  0  0  0  0
  -57.0795   55.2300  354.2843 H   0  0  0  0  0  0  0  0  0  0  0  0
  1  6  1  0
  1 36  2  0
  1 40  1  0
  2  9  2  0
  2 17  1  0
  3 20  1  0
  3 25  2  0
  4 28  1  0
  4 33  2  0
  5  6  2  0
  5  9  1  0
  6  7  1  0
  7  8  1  0
  7 11  1  0
  8  9  1  0
  8 10  1  0
 11 12  1  0
 12 13  1  0
 13 14  2  0
 13 15  1  0
 15 45  1  0
 16 17  1  0
 16 20  1  0
 17 18  2  0
 18 19  1  0
 18 21  1  0
 19 20  2  0
 19 22  1  0
 22 23  2  0
 24 25  1  0
 24 28  2  0
 25 26  1  0
 26 27  2  0
 26 29  1  0
 27 28  1  0
 27 30  1  0
 30 31  1  0
 32 33  1  0
 32 36  1  0
 33 34  1  0
 34 35  2  0
 34 37  1  0
 35 36  1  0
 35 38  1  0
 38 39  2  0
 38 40  1  0
 40 41  1  0
 41 42  2  0
 41 43  1  0
 43 44  1  0
 45 46  1  0
 46 47  2  3
 47 48  1  0
 47 49  1  0
 49 50  1  0
 50 51  1  0
 51 52  1  0
 52 53  1  0
 52 54  1  0
 54 55  1  0
 55 56  1  0
 56 57  1  0
 57 58  1  0
 57 59  1  0
 59 60  1  0
 60 61  1  0
 61 62  1  0
 62 63  1  0
 62 64  1  0
  2 65  1  0
  3 66  1  0
  4 67  1  0
  7 68  1  1
  8 69  1  6
 10 70  1  0
 10 71  1  0
 10 72  1  0
 11 73  1  0
 11 74  1  0
 12 75  1  0
 12 76  1  0
 16 77  1  0
 21 78  1  0
 21 79  1  0
 21 80  1  0
 22 81  1  0
 23 82  1  0
 23 83  1  0
 29 84  1  0
 29 85  1  0
 29 86  1  0
 30 87  1  0
 30 88  1  0
 31 89  1  0
 31 90  1  0
 31 91  1  0
 32 92  1  0
 37 93  1  0
 37 94  1  0
 37 95  1  0
 40 96  1  1
 44 97  1  0
 44 98  1  0
 44 99  1  0
 45100  1  0
 45101  1  0
 46102  1  0
 48103  1  0
 48104  1  0
 48105  1  0
 49106  1  0
 49107  1  0
 50108  1  0
 50109  1  0
 51110  1  0
 51111  1  0
 52112  1  1
 53113  1  0
 53114  1  0
 53115  1  0
 54116  1  0
 54117  1  0
 55118  1  0
 55119  1  0
 56120  1  0
 56121  1  0
 57122  1  6
 58123  1  0
 58124  1  0
 58125  1  0
 59126  1  0
 59127  1  0
 60128  1  0
 60129  1  0
 61130  1  0
 61131  1  0
 62132  1  1
 63133  1  0
 63134  1  0
 63135  1  0
 64136  1  0
 64137  1  0
 64138  1  0
M  END
>  <filename_input>  (25) 
8F4J_PHO_docked.sdf

>  <pdb_id>  (25) 
8F4J_PHO

>  <pose_rank>  (25) 
24

>  <num_atoms_heavy>  (25) 
64

>  <num_torsions>  (25) 
22

>  <pose>  (25) 
[-54.09495450546236, 65.5724582113676, 347.155126084842, 1.6966755231350938, -1.3386745910850095, -0.5887009901991648, -0.25025342057050975, 2.834912942416035, -3.2114120888931033, -2.300026315264291, 30.582554145687848, -1.4558741468865972, -21.780484864897925, -6.932449174779114, -37.11537844226741, -31.83591205876942, -17.82479838488997, 0.8008388606216947, -0.5172332245873958, -4.088163998875048, 3.95764525297722, -2.953965364736981, -7.182991772979024, -7.026266904493906, 0.10661120223162335, 0.12496183182400718, 0.40467788344898115, 3.3557865214716807]

>  <energy>  (25) 
-228.64043765246655

>  <inter_energy>  (25) 
-244.69824804437155

>  <intra_energy>  (25) 
17.589556105733077

>  <rmsd>  (25) 
6.93172

>  <sdf_rank>  (25) 
0

$$$$

     RDKit          3D

138143  0  0  0  0  0  0  0  0999 V2000
  -56.6020   63.7140  344.9750 C   0  0  0  0  0  0  0  0  0  0  0  0
  -54.7170   63.1640  349.3740 C   0  0  0  0  0  0  0  0  0  0  0  0
  -53.5770   58.5160  348.1890 C   0  0  0  0  0  0  0  0  0  0  0  0
  -55.3030   59.0820  343.6410 C   0  0  0  0  0  0  0  0  0  0  0  0
  -55.5210   63.1780  347.0740 N   0  0  0  0  0  0  0  0  0  0  0  0
  -56.2890   64.0390  346.2420 C   0  0  0  0  0  0  0  0  0  0  0  0
  -56.5830   65.3470  346.9420 C   0  0  2  0  0  0  0  0  0  0  0  0
  -55.6710   65.2590  348.2020 C   0  0  1  0  0  0  0  0  0  0  0  0
  -55.2940   63.7780  348.2220 C   0  0  0  0  0  0  0  0  0  0  0  0
  -54.4710   66.1450  348.0270 C   0  0  0  0  0  0  0  0  0  0  0  0
  -58.0410   65.5200  347.2920 C   0  0  0  0  0  0  0  0  0  0  0  0
  -58.2060   66.7800  348.1210 C   0  0  0  0  0  0  0  0  0  0  0  0
  -59.6230   66.8900  348.5810 C   0  0  0  0  0  0  0  0  0  0  0  0
  -60.4920   66.0150  348.5750 O   0  0  0  0  0  0  0  0  0  0  0  0
  -59.9420   68.1360  349.0340 O   0  0  0  0  0  0  0  0  0  0  0  0
  -54.3750   60.8760  348.4460 N   0  0  0  0  0  0  0  0  0  0  0  0
  -54.3260   61.8610  349.4380 C   0  0  0  0  0  0  0  0  0  0  0  0
  -53.7310   61.2240  350.6390 C   0  0  0  0  0  0  0  0  0  0  0  0
  -53.4030   59.9190  350.3190 C   0  0  0  0  0  0  0  0  0  0  0  0
  -53.8090   59.6620  348.8980 C   0  0  0  0  0  0  0  0  0  0  0  0
  -53.5250   62.0150  351.8510 C   0  0  0  0  0  0  0  0  0  0  0  0
  -52.7390   58.8960  351.0840 C   0  0  0  0  0  0  0  0  0  0  0  0
  -52.6680   58.8410  352.4120 C   0  0  0  0  0  0  0  0  0  0  0  0
  -54.6570   59.0380  346.0340 N   0  0  0  0  0  0  0  0  0  0  0  0
  -53.9790   58.2180  346.8350 C   0  0  0  0  0  0  0  0  0  0  0  0
  -53.5790   56.9830  346.0850 C   0  0  0  0  0  0  0  0  0  0  0  0
  -54.0150   57.1700  344.7840 C   0  0  0  0  0  0  0  0  0  0  0  0
  -54.7310   58.4780  344.7320 C   0  0  0  0  0  0  0  0  0  0  0  0
  -52.7910   55.8770  346.6390 C   0  0  0  0  0  0  0  0  0  0  0  0
  -53.8720   56.2630  343.6300 C   0  0  0  0  0  0  0  0  0  0  0  0
  -55.2020   55.6360  343.2260 C   0  0  0  0  0  0  0  0  0  0  0  0
  -55.9820   61.1940  344.7740 N   0  0  0  0  0  0  0  0  0  0  0  0
  -55.9010   60.3770  343.6220 C   0  0  0  0  0  0  0  0  0  0  0  0
  -56.4620   61.1030  342.5080 C   0  0  0  0  0  0  0  0  0  0  0  0
  -56.7700   62.3940  342.9930 C   0  0  0  0  0  0  0  0  0  0  0  0
  -56.4030   62.4190  344.3900 C   0  0  0  0  0  0  0  0  0  0  0  0
  -56.6560   60.6310  341.1340 C   0  0  0  0  0  0  0  0  0  0  0  0
  -57.2670   63.6980  342.6090 C   0  0  0  0  0  0  0  0  0  0  0  0
  -57.6840   64.0870  341.5300 O   0  0  0  0  0  0  0  0  0  0  0  0
  -57.1310   64.6100  343.8700 C   0  0  2  0  0  0  0  0  0  0  0  0
  -56.2140   65.7580  343.5450 C   0  0  0  0  0  0  0  0  0  0  0  0
  -56.4920   66.8470  343.0560 O   0  0  0  0  0  0  0  0  0  0  0  0
  -54.8940   65.4930  343.8450 O   0  0  0  0  0  0  0  0  0  0  0  0
  -53.9450   66.4630  343.4190 C   0  0  0  0  0  0  0  0  0  0  0  0
  -61.1560   68.2710  349.8130 C   0  0  0  0  0  0  0  0  0  0  0  0
  -60.8730   67.8470  351.2100 C   0  0  0  0  0  0  0  0  0  0  0  0
  -61.7510   67.0820  351.8640 C   0  0  0  0  0  0  0  0  0  0  0  0
  -62.9890   66.6790  351.1740 C   0  0  0  0  0  0  0  0  0  0  0  0
  -61.5590   66.6040  353.2720 C   0  0  0  0  0  0  0  0  0  0  0  0
  -61.3860   65.0890  353.4380 C   0  0  0  0  0  0  0  0  0  0  0  0
  -61.5500   64.6740  354.8960 C   0  0  0  0  0  0  0  0  0  0  0  0
  -60.9660   63.3020  355.2190 C   0  0  2  0  0  0  0  0  0  0  0  0
  -61.6080   62.2510  354.3560 C   0  0  0  0  0  0  0  0  0  0  0  0
  -61.1010   62.9270  356.6960 C   0  0  0  0  0  0  0  0  0  0  0  0
  -60.3580   63.8780  357.6310 C   0  0  0  0  0  0  0  0  0  0  0  0
  -58.8420   63.8320  357.4850 C   0  0  0  0  0  0  0  0  0  0  0  0
  -58.1360   64.6810  358.5400 C   0  0  2  0  0  0  0  0  0  0  0  0
  -58.2860   66.1790  358.2870 C   0  0  0  0  0  0  0  0  0  0  0  0
  -56.6590   64.3390  358.5790 C   0  0  0  0  0  0  0  0  0  0  0  0
  -56.3540   63.0220  359.2630 C   0  0  0  0  0  0  0  0  0  0  0  0
  -54.8420   62.8270  359.3390 C   0  0  0  0  0  0  0  0  0  0  0  0
  -54.4720   61.6120  360.1790 C   0  0  2  0  0  0  0  0  0  0  0  0
  -52.9730   61.4310  360.2040 C   0  0  0  0  0  0  0  0  0  0  0  0
  -55.1210   60.3910  359.5760 C   0  0  0  0  0  0  0  0  0  0  0  0
  -54.5787   63.7854  350.2711 H   0  0  0  0  0  0  0  0  0  0  0  0
  -53.0173   57.7272  348.7129 H   0  0  0  0  0  0  0  0  0  0  0  0
  -55.3002   58.5175  342.6969 H   0  0  0  0  0  0  0  0  0  0  0  0
  -56.3802   66.2259  346.3125 H   0  0  0  0  0  0  0  0  0  0  0  0
  -56.1435   65.5902  349.1385 H   0  0  0  0  0  0  0  0  0  0  0  0
  -54.0808   66.4331  349.0143 H   0  0  0  0  0  0  0  0  0  0  0  0
  -53.6932   65.6029  347.4693 H   0  0  0  0  0  0  0  0  0  0  0  0
  -54.7601   67.0480  347.4693 H   0  0  0  0  0  0  0  0  0  0  0  0
  -58.6337   65.6058  346.3693 H   0  0  0  0  0  0  0  0  0  0  0  0
  -58.3901   64.6496  347.8669 H   0  0  0  0  0  0  0  0  0  0  0  0
  -57.5392   66.7343  348.9946 H   0  0  0  0  0  0  0  0  0  0  0  0
  -57.9492   67.6578  347.5099 H   0  0  0  0  0  0  0  0  0  0  0  0
  -54.7726   61.0172  347.5064 H   0  0  0  0  0  0  0  0  0  0  0  0
  -53.6900   61.3813  352.7349 H   0  0  0  0  0  0  0  0  0  0  0  0
  -52.4958   62.4031  351.8651 H   0  0  0  0  0  0  0  0  0  0  0  0
  -54.2341   62.8558  351.8651 H   0  0  0  0  0  0  0  0  0  0  0  0
  -52.2470   58.0888  350.5215 H   0  0  0  0  0  0  0  0  0  0  0  0
  -52.1339   58.0126  352.9004 H   0  0  0  0  0  0  0  0  0  0  0  0
  -53.1434   59.6239  353.0211 H   0  0  0  0  0  0  0  0  0  0  0  0
  -52.8213   55.9195  347.7377 H   0  0  0  0  0  0  0  0  0  0  0  0
  -53.2118   54.9198  346.2974 H   0  0  0  0  0  0  0  0  0  0  0  0
  -51.7489   55.9621  346.2974 H   0  0  0  0  0  0  0  0  0  0  0  0
  -53.4751   56.8335  342.7773 H   0  0  0  0  0  0  0  0  0  0  0  0
  -53.1884   55.4512  343.9194 H   0  0  0  0  0  0  0  0  0  0  0  0
  -55.7703   55.3681  344.1289 H   0  0  0  0  0  0  0  0  0  0  0  0
  -55.7805   56.3562  342.6288 H   0  0  0  0  0  0  0  0  0  0  0  0
  -55.0145   54.7314  342.6288 H   0  0  0  0  0  0  0  0  0  0  0  0
  -55.7590   60.9054  345.7373 H   0  0  0  0  0  0  0  0  0  0  0  0
  -57.0741   59.6137  341.1514 H   0  0  0  0  0  0  0  0  0  0  0  0
  -57.3504   61.3040  340.6097 H   0  0  0  0  0  0  0  0  0  0  0  0
  -55.6890   60.6211  340.6097 H   0  0  0  0  0  0  0  0  0  0  0  0
  -58.0820   65.0591  344.1923 H   0  0  0  0  0  0  0  0  0  0  0  0
  -53.4831   66.9351  344.2987 H   0  0  0  0  0  0  0  0  0  0  0  0
  -53.1670   65.9740  342.8144 H   0  0  0  0  0  0  0  0  0  0  0  0
  -54.4510   67.2301  342.8144 H   0  0  0  0  0  0  0  0  0  0  0  0
  -61.4874   69.3199  349.8040 H   0  0  0  0  0  0  0  0  0  0  0  0
  -61.9501   67.6427  349.3832 H   0  0  0  0  0  0  0  0  0  0  0  0
  -59.9422   68.1628  351.7038 H   0  0  0  0  0  0  0  0  0  0  0  0
  -63.7589   66.4284  351.9187 H   0  0  0  0  0  0  0  0  0  0  0  0
  -63.3442   67.5079  350.5441 H   0  0  0  0  0  0  0  0  0  0  0  0
  -62.7882   65.7998  350.5441 H   0  0  0  0  0  0  0  0  0  0  0  0
  -60.6610   67.0938  353.6766 H   0  0  0  0  0  0  0  0  0  0  0  0
  -62.4847   66.8623  353.8072 H   0  0  0  0  0  0  0  0  0  0  0  0
  -62.1432   64.5722  352.8301 H   0  0  0  0  0  0  0  0  0  0  0  0
  -60.3728   64.8150  353.1087 H   0  0  0  0  0  0  0  0  0  0  0  0
  -61.0472   65.4215  355.5273 H   0  0  0  0  0  0  0  0  0  0  0  0
  -62.6310   64.6141  355.0907 H   0  0  0  0  0  0  0  0  0  0  0  0
  -59.8887   63.3557  355.0032 H   0  0  0  0  0  0  0  0  0  0  0  0
  -62.0748   61.4868  354.9949 H   0  0  0  0  0  0  0  0  0  0  0  0
  -62.3759   62.7169  353.7209 H   0  0  0  0  0  0  0  0  0  0  0  0
  -60.8429   61.7805  353.7209 H   0  0  0  0  0  0  0  0  0  0  0  0
  -62.1681   62.9379  356.9628 H   0  0  0  0  0  0  0  0  0  0  0  0
  -60.6525   61.9304  356.8214 H   0  0  0  0  0  0  0  0  0  0  0  0
  -60.6948   64.9037  357.4202 H   0  0  0  0  0  0  0  0  0  0  0  0
  -60.5886   63.5591  358.6582 H   0  0  0  0  0  0  0  0  0  0  0  0
  -58.5075   62.7891  357.5873 H   0  0  0  0  0  0  0  0  0  0  0  0
  -58.5850   64.2390  356.4959 H   0  0  0  0  0  0  0  0  0  0  0  0
  -58.6150   64.4494  359.5028 H   0  0  0  0  0  0  0  0  0  0  0  0
  -58.3391   66.7098  359.2490 H   0  0  0  0  0  0  0  0  0  0  0  0
  -57.4198   66.5428  357.7149 H   0  0  0  0  0  0  0  0  0  0  0  0
  -59.2071   66.3638  357.7149 H   0  0  0  0  0  0  0  0  0  0  0  0
  -56.2877   64.2868  357.5449 H   0  0  0  0  0  0  0  0  0  0  0  0
  -56.1632   65.1267  359.1652 H   0  0  0  0  0  0  0  0  0  0  0  0
  -56.7742   63.0307  360.2795 H   0  0  0  0  0  0  0  0  0  0  0  0
  -56.8018   62.1978  358.6884 H   0  0  0  0  0  0  0  0  0  0  0  0
  -54.4487   62.6896  358.3209 H   0  0  0  0  0  0  0  0  0  0  0  0
  -54.4049   63.7178  359.8137 H   0  0  0  0  0  0  0  0  0  0  0  0
  -54.8246   61.7570  361.2108 H   0  0  0  0  0  0  0  0  0  0  0  0
  -52.6261   61.3891  361.2470 H   0  0  0  0  0  0  0  0  0  0  0  0
  -52.7082   60.4943  359.6916 H   0  0  0  0  0  0  0  0  0  0  0  0
  -52.4928   62.2777  359.6916 H   0  0  0  0  0  0  0  0  0  0  0  0
  -55.4733   59.7282  360.3801 H   0  0  0  0  0  0  0  0  0  0  0  0
  -55.9745   60.6988  358.9541 H   0  0  0  0  0  0  0  0  0  0  0  0
  -54.3884   59.8557  358.9541 H   0  0  0  0  0  0  0  0  0  0  0  0
  1  6  1  0
  1 36  2  0
  1 40  1  0
  2  9  2  0
  2 17  1  0
  3 20  1  0
  3 25  2  0
  4 28  1  0
  4 33  2  0
  5  6  2  0
  5  9  1  0
  6  7  1  0
  7  8  1  0
  7 11  1  0
  8  9  1  0
  8 10  1  0
 11 12  1  0
 12 13  1  0
 13 14  2  0
 13 15  1  0
 15 45  1  0
 16 17  1  0
 16 20  1  0
 17 18  2  0
 18 19  1  0
 18 21  1  0
 19 20  2  0
 19 22  1  0
 22 23  2  0
 24 25  1  0
 24 28  2  0
 25 26  1  0
 26 27  2  0
 26 29  1  0
 27 28  1  0
 27 30  1  0
 30 31  1  0
 32 33  1  0
 32 36  1  0
 33 34  1  0
 34 35  2  0
 34 37  1  0
 35 36  1  0
 35 38  1  0
 38 39  2  0
 38 40  1  0
 40 41  1  0
 41 42  2  0
 41 43  1  0
 43 44  1  0
 45 46  1  0
 46 47  2  3
 47 48  1  0
 47 49  1  0
 49 50  1  0
 50 51  1  0
 51 52  1  0
 52 53  1  0
 52 54  1  0
 54 55  1  0
 55 56  1  0
 56 57  1  0
 57 58  1  0
 57 59  1  0
 59 60  1  0
 60 61  1  0
 61 62  1  0
 62 63  1  0
 62 64  1  0
  2 65  1  0
  3 66  1  0
  4 67  1  0
  7 68  1  6
  8 69  1  1
 10 70  1  0
 10 71  1  0
 10 72  1  0
 11 73  1  0
 11 74  1  0
 12 75  1  0
 12 76  1  0
 16 77  1  0
 21 78  1  0
 21 79  1  0
 21 80  1  0
 22 81  1  0
 23 82  1  0
 23 83  1  0
 29 84  1  0
 29 85  1  0
 29 86  1  0
 30 87  1  0
 30 88  1  0
 31 89  1  0
 31 90  1  0
 31 91  1  0
 32 92  1  0
 37 93  1  0
 37 94  1  0
 37 95  1  0
 40 96  1  1
 44 97  1  0
 44 98  1  0
 44 99  1  0
 45100  1  0
 45101  1  0
 46102  1  0
 48103  1  0
 48104  1  0
 48105  1  0
 49106  1  0
 49107  1  0
 50108  1  0
 50109  1  0
 51110  1  0
 51111  1  0
 52112  1  6
 53113  1  0
 53114  1  0
 53115  1  0
 54116  1  0
 54117  1  0
 55118  1  0
 55119  1  0
 56120  1  0
 56121  1  0
 57122  1  1
 58123  1  0
 58124  1  0
 58125  1  0
 59126  1  0
 59127  1  0
 60128  1  0
 60129  1  0
 61130  1  0
 61131  1  0
 62132  1  1
 63133  1  0
 63134  1  0
 63135  1  0
 64136  1  0
 64137  1  0
 64138  1  0
M  END
>  <filename_input>  (26) 
8F4J_PHO_docked.sdf

>  <pdb_id>  (26) 
8F4J_PHO

>  <pose_rank>  (26) 
25

>  <num_atoms_heavy>  (26) 
64

>  <num_torsions>  (26) 
22

>  <pose>  (26) 
[-56.602, 63.714, 344.975, 1e-06, 1e-06, 1e-06, 0.0, 0.0, 0.0, 0.0, 0.0, 0.0, 0.0, 0.0, 0.0, 0.0, 0.0, 0.0, 0.0, 0.0, 0.0, 0.0, 0.0, 0.0, 0.0, 0.0, 0.0, 0.0]

>  <energy>  (26) 
-901.1073266593612

>  <inter_energy>  (26) 
-922.4282867912701

>  <intra_energy>  (26) 
21.05443562327099

>  <rmsd>  (26) 
0.0

>  <sdf_rank>  (26) 
0

$$$$
