
     RDKit          3D

 43 45  0  0  0  0  0  0  0  0999 V2000
  -23.6358  -17.1958    2.1698 N   0  0  0  0  0  0  0  0  0  0  0  0
  -25.2481  -16.9162   -2.5550 C   0  0  0  0  0  0  0  0  0  0  0  0
  -24.0324  -16.3624   -2.2559 C   0  0  0  0  0  0  0  0  0  0  0  0
  -20.7453  -20.6222    0.8723 N   0  0  0  0  0  0  0  0  0  0  0  0
  -23.4067  -16.7090   -1.0756 C   0  0  0  0  0  0  0  0  0  0  0  0
  -17.3622  -20.3074    0.7176 O   0  0  0  0  0  0  0  0  0  0  0  0
  -22.3508  -18.9025    1.3680 C   0  0  0  0  0  0  0  0  0  0  0  0
  -25.2094  -18.1509   -0.5550 C   0  0  0  0  0  0  0  0  0  0  0  0
  -25.8620  -17.8239   -1.7187 C   0  0  0  0  0  0  0  0  0  0  0  0
  -17.8721  -20.9764   -1.3694 N   0  0  0  0  0  0  0  0  0  0  0  0
  -23.9905  -17.6071   -0.1901 C   0  0  0  0  0  0  0  0  0  0  0  0
  -23.3258  -17.9168    1.0804 C   0  0  0  0  0  0  0  0  0  0  0  0
  -22.0684  -18.7207    2.7020 C   0  0  0  0  0  0  0  0  0  0  0  0
  -17.9997  -21.0221   -0.0535 C   0  0  0  0  0  0  0  0  0  0  0  0
  -18.8580  -22.1348    0.4844 C   0  0  0  0  0  0  0  0  0  0  0  0
  -20.3193  -21.8384    0.1759 C   0  0  1  0  0  0  0  0  0  0  0  0
  -21.1326  -23.0558    0.5336 C   0  0  0  0  0  0  0  0  0  0  0  0
  -21.2232  -24.1154   -0.3623 C   0  0  0  0  0  0  0  0  0  0  0  0
  -21.8318  -25.3066   -0.0017 C   0  0  0  0  0  0  0  0  0  0  0  0
  -22.3359  -25.4310    1.2641 C   0  0  0  0  0  0  0  0  0  0  0  0
  -22.8067  -26.6387    1.6664 F   0  0  0  0  0  0  0  0  0  0  0  0
  -22.2873  -24.3757    2.1661 C   0  0  0  0  0  0  0  0  0  0  0  0
  -22.9835  -24.5223    3.7440 Cl  0  0  0  0  0  0  0  0  0  0  0  0
  -21.6914  -23.1898    1.7962 C   0  0  0  0  0  0  0  0  0  0  0  0
  -21.8325  -19.9554    0.4672 C   0  0  0  0  0  0  0  0  0  0  0  0
  -22.4028  -20.2125   -0.5800 O   0  0  0  0  0  0  0  0  0  0  0  0
  -22.8410  -17.7149    3.1316 N   0  0  0  0  0  0  0  0  0  0  0  0
  -26.0399  -16.4572   -4.0278 Cl  0  0  0  0  0  0  0  0  0  0  0  0
  -25.7984  -19.0340    0.2675 F   0  0  0  0  0  0  0  0  0  0  0  0
  -23.5599  -15.6498   -2.9480 H   0  0  0  0  0  0  0  0  0  0  0  0
  -20.2048  -20.2781    1.6786 H   0  0  0  0  0  0  0  0  0  0  0  0
  -22.4294  -16.2670   -0.8316 H   0  0  0  0  0  0  0  0  0  0  0  0
  -26.8354  -18.2686   -1.9730 H   0  0  0  0  0  0  0  0  0  0  0  0
  -18.4350  -21.6018   -1.9634 H   0  0  0  0  0  0  0  0  0  0  0  0
  -17.2098  -20.3154   -1.7999 H   0  0  0  0  0  0  0  0  0  0  0  0
  -21.3454  -19.2928    3.3019 H   0  0  0  0  0  0  0  0  0  0  0  0
  -18.5679  -23.0843    0.0107 H   0  0  0  0  0  0  0  0  0  0  0  0
  -18.7200  -22.2128    1.5729 H   0  0  0  0  0  0  0  0  0  0  0  0
  -20.4705  -21.6370   -0.8949 H   0  0  0  0  0  0  0  0  0  0  0  0
  -20.8049  -24.0060   -1.3737 H   0  0  0  0  0  0  0  0  0  0  0  0
  -21.9082  -26.1367   -0.7195 H   0  0  0  0  0  0  0  0  0  0  0  0
  -21.6588  -22.3478    2.5032 H   0  0  0  0  0  0  0  0  0  0  0  0
  -22.8305  -17.3699    4.1021 H   0  0  0  0  0  0  0  0  0  0  0  0
  1 12  2  0
  1 27  1  0
  2  3  2  0
  2  9  1  0
  2 28  1  0
  3  5  1  0
  4 16  1  0
  4 25  1  0
  5 11  2  0
  6 14  2  0
  7 12  1  0
  7 13  2  0
  7 25  1  0
  8  9  2  0
  8 11  1  0
  8 29  1  0
 10 14  1  0
 11 12  1  0
 13 27  1  0
 14 15  1  0
 16 15  1  0
 16 17  1  0
 17 18  2  0
 17 24  1  0
 18 19  1  0
 19 20  2  0
 20 21  1  0
 20 22  1  0
 22 23  1  0
 22 24  2  0
 25 26  2  0
  3 30  1  0
  4 31  1  0
  5 32  1  0
  9 33  1  0
 10 34  1  0
 10 35  1  0
 13 36  1  0
 15 37  1  0
 15 38  1  0
 16 39  1  6
 18 40  1  0
 19 41  1  0
 24 42  1  0
 27 43  1  0
M  END
>  <filename_input>  (1) 
8F8E_XJI_docked.sdf

>  <pdb_id>  (1) 
8F8E_XJI

>  <pose_rank>  (1) 
0

>  <num_atoms_heavy>  (1) 
29

>  <num_torsions>  (1) 
6

>  <pose>  (1) 
[-20.745336701294793, -20.6221622804814, 0.872251132646386, -0.08688204614905992, 0.18733038267625243, 0.08196846904610194, -12.750695433243939, 2.664642516064572, 6.510653127016615, -0.0631428945211199, -0.1452923455546774, 3.036728167307006]

>  <energy>  (1) 
-895.9994433621686

>  <inter_energy>  (1) 
-889.8374820500526

>  <intra_energy>  (1) 
14.22742832763668

>  <rmsd>  (1) 
1.37662

>  <sdf_rank>  (1) 
0

$$$$

     RDKit          3D

 43 45  0  0  0  0  0  0  0  0999 V2000
  -19.3861  -22.2865   -0.6350 N   0  0  0  0  0  0  0  0  0  0  0  0
  -22.4320  -24.8337    2.4237 C   0  0  0  0  0  0  0  0  0  0  0  0
  -22.1505  -23.5957    2.9358 C   0  0  0  0  0  0  0  0  0  0  0  0
  -21.9780  -18.5720    0.4224 N   0  0  0  0  0  0  0  0  0  0  0  0
  -21.5432  -22.6554    2.1286 C   0  0  0  0  0  0  0  0  0  0  0  0
  -23.7410  -17.0308    3.4549 O   0  0  0  0  0  0  0  0  0  0  0  0
  -20.8693  -20.5936   -0.2590 C   0  0  0  0  0  0  0  0  0  0  0  0
  -21.5418  -24.2056    0.3406 C   0  0  0  0  0  0  0  0  0  0  0  0
  -22.1410  -25.1666    1.1181 C   0  0  0  0  0  0  0  0  0  0  0  0
  -24.5328  -15.1889    2.4333 N   0  0  0  0  0  0  0  0  0  0  0  0
  -21.2142  -22.9458    0.8099 C   0  0  0  0  0  0  0  0  0  0  0  0
  -20.5228  -21.9435   -0.0082 C   0  0  0  0  0  0  0  0  0  0  0  0
  -19.8553  -20.1274   -1.0634 C   0  0  0  0  0  0  0  0  0  0  0  0
  -23.7804  -16.2757    2.4853 C   0  0  0  0  0  0  0  0  0  0  0  0
  -22.8189  -16.4635    1.3432 C   0  0  0  0  0  0  0  0  0  0  0  0
  -23.1717  -17.7402    0.5921 C   0  0  1  0  0  0  0  0  0  0  0  0
  -23.8298  -17.3553   -0.7080 C   0  0  0  0  0  0  0  0  0  0  0  0
  -23.0957  -16.6934   -1.6860 C   0  0  0  0  0  0  0  0  0  0  0  0
  -23.6254  -16.4649   -2.9456 C   0  0  0  0  0  0  0  0  0  0  0  0
  -24.8881  -16.9150   -3.2198 C   0  0  0  0  0  0  0  0  0  0  0  0
  -25.3572  -16.8177   -4.4897 F   0  0  0  0  0  0  0  0  0  0  0  0
  -25.6536  -17.5492   -2.2497 C   0  0  0  0  0  0  0  0  0  0  0  0
  -27.2727  -18.0592   -2.5879 Cl  0  0  0  0  0  0  0  0  0  0  0  0
  -25.1246  -17.7619   -0.9954 C   0  0  0  0  0  0  0  0  0  0  0  0
  -22.0949  -19.8789    0.1602 C   0  0  0  0  0  0  0  0  0  0  0  0
  -23.1628  -20.4647    0.2274 O   0  0  0  0  0  0  0  0  0  0  0  0
  -19.0109  -21.1480   -1.2590 N   0  0  0  0  0  0  0  0  0  0  0  0
  -23.1724  -26.0183    3.4509 Cl  0  0  0  0  0  0  0  0  0  0  0  0
  -21.2534  -24.5191   -0.9328 F   0  0  0  0  0  0  0  0  0  0  0  0
  -22.4052  -23.3534    3.9781 H   0  0  0  0  0  0  0  0  0  0  0  0
  -21.0429  -18.1483    0.5054 H   0  0  0  0  0  0  0  0  0  0  0  0
  -21.3158  -21.6591    2.5358 H   0  0  0  0  0  0  0  0  0  0  0  0
  -22.3790  -26.1620    0.7149 H   0  0  0  0  0  0  0  0  0  0  0  0
  -24.5226  -14.5953    1.5917 H   0  0  0  0  0  0  0  0  0  0  0  0
  -25.1288  -14.9364    3.2345 H   0  0  0  0  0  0  0  0  0  0  0  0
  -19.7569  -19.1096   -1.4688 H   0  0  0  0  0  0  0  0  0  0  0  0
  -22.8880  -15.6043    0.6599 H   0  0  0  0  0  0  0  0  0  0  0  0
  -21.7933  -16.5377    1.7339 H   0  0  0  0  0  0  0  0  0  0  0  0
  -23.8853  -18.3555    1.1597 H   0  0  0  0  0  0  0  0  0  0  0  0
  -22.0779  -16.3455   -1.4559 H   0  0  0  0  0  0  0  0  0  0  0  0
  -23.0420  -15.9318   -3.7107 H   0  0  0  0  0  0  0  0  0  0  0  0
  -25.7300  -18.2549   -0.2205 H   0  0  0  0  0  0  0  0  0  0  0  0
  -18.1573  -21.0727   -1.8304 H   0  0  0  0  0  0  0  0  0  0  0  0
  1 12  2  0
  1 27  1  0
  2  3  2  0
  2  9  1  0
  2 28  1  0
  3  5  1  0
  4 16  1  0
  4 25  1  0
  5 11  2  0
  6 14  2  0
  7 12  1  0
  7 13  2  0
  7 25  1  0
  8  9  2  0
  8 11  1  0
  8 29  1  0
 10 14  1  0
 11 12  1  0
 13 27  1  0
 14 15  1  0
 16 15  1  0
 16 17  1  0
 17 18  2  0
 17 24  1  0
 18 19  1  0
 19 20  2  0
 20 21  1  0
 20 22  1  0
 22 23  1  0
 22 24  2  0
 25 26  2  0
  3 30  1  0
  4 31  1  0
  5 32  1  0
  9 33  1  0
 10 34  1  0
 10 35  1  0
 13 36  1  0
 15 37  1  0
 15 38  1  0
 16 39  1  1
 18 40  1  0
 19 41  1  0
 24 42  1  0
 27 43  1  0
M  END
>  <filename_input>  (2) 
8F8E_XJI_docked.sdf

>  <pdb_id>  (2) 
8F8E_XJI

>  <pose_rank>  (2) 
1

>  <num_atoms_heavy>  (2) 
29

>  <num_torsions>  (2) 
6

>  <pose>  (2) 
[-21.978016535201014, -18.57200994791736, 0.4223953306573485, -2.3397232191538477, -1.1425479247393973, -1.7550758187650743, -0.539817490384176, -3.008159630048484, 0.21928038169162506, 2.531283015052106, -1.2963363109303654, 2.24391317027664]

>  <energy>  (2) 
-743.0914543215133

>  <inter_energy>  (2) 
-752.9026070808669

>  <intra_energy>  (2) 
17.340898721741382

>  <rmsd>  (2) 
7.6496

>  <sdf_rank>  (2) 
0

$$$$

     RDKit          3D

 43 45  0  0  0  0  0  0  0  0999 V2000
  -16.6696  -21.2798   -3.1675 N   0  0  0  0  0  0  0  0  0  0  0  0
  -14.0009  -21.5006    1.1104 C   0  0  0  0  0  0  0  0  0  0  0  0
  -14.7854  -22.5851    0.8235 C   0  0  0  0  0  0  0  0  0  0  0  0
  -20.4666  -21.1290   -0.4902 N   0  0  0  0  0  0  0  0  0  0  0  0
  -15.7465  -22.4792   -0.1613 C   0  0  0  0  0  0  0  0  0  0  0  0
  -21.9250  -19.3388    2.7454 O   0  0  0  0  0  0  0  0  0  0  0  0
  -18.3852  -21.0090   -1.6876 C   0  0  0  0  0  0  0  0  0  0  0  0
  -15.0933  -20.2371   -0.5438 C   0  0  0  0  0  0  0  0  0  0  0  0
  -14.1308  -20.3066    0.4339 C   0  0  0  0  0  0  0  0  0  0  0  0
  -22.0948  -18.1027    0.8730 N   0  0  0  0  0  0  0  0  0  0  0  0
  -15.9291  -21.2929   -0.8619 C   0  0  0  0  0  0  0  0  0  0  0  0
  -16.9929  -21.1948   -1.8672 C   0  0  0  0  0  0  0  0  0  0  0  0
  -18.8887  -20.9633   -2.9669 C   0  0  0  0  0  0  0  0  0  0  0  0
  -22.1903  -19.2355    1.5493 C   0  0  0  0  0  0  0  0  0  0  0  0
  -22.4827  -20.4649    0.7325 C   0  0  0  0  0  0  0  0  0  0  0  0
  -21.2555  -21.3661    0.7210 C   0  0  1  0  0  0  0  0  0  0  0  0
  -21.7173  -22.7929    0.8716 C   0  0  0  0  0  0  0  0  0  0  0  0
  -21.4274  -23.7227   -0.1209 C   0  0  0  0  0  0  0  0  0  0  0  0
  -21.7014  -25.0688    0.0584 C   0  0  0  0  0  0  0  0  0  0  0  0
  -22.2550  -25.4756    1.2417 C   0  0  0  0  0  0  0  0  0  0  0  0
  -22.3963  -26.8049    1.4764 F   0  0  0  0  0  0  0  0  0  0  0  0
  -22.5843  -24.5621    2.2350 C   0  0  0  0  0  0  0  0  0  0  0  0
  -23.3415  -25.0796    3.7029 Cl  0  0  0  0  0  0  0  0  0  0  0  0
  -22.3202  -23.2234    2.0444 C   0  0  0  0  0  0  0  0  0  0  0  0
  -19.1392  -20.9778   -0.4151 C   0  0  0  0  0  0  0  0  0  0  0  0
  -18.5564  -20.8509    0.6489 O   0  0  0  0  0  0  0  0  0  0  0  0
  -17.8536  -21.1262   -3.8005 N   0  0  0  0  0  0  0  0  0  0  0  0
  -12.8122  -21.6332    2.3660 Cl  0  0  0  0  0  0  0  0  0  0  0  0
  -15.2289  -19.0787   -1.2092 F   0  0  0  0  0  0  0  0  0  0  0  0
  -14.6514  -23.5296    1.3712 H   0  0  0  0  0  0  0  0  0  0  0  0
  -20.9366  -21.0783   -1.4054 H   0  0  0  0  0  0  0  0  0  0  0  0
  -16.3786  -23.3484   -0.3956 H   0  0  0  0  0  0  0  0  0  0  0  0
  -13.4894  -19.4440    0.6675 H   0  0  0  0  0  0  0  0  0  0  0  0
  -22.3316  -18.0797   -0.1292 H   0  0  0  0  0  0  0  0  0  0  0  0
  -21.7836  -17.2436    1.3485 H   0  0  0  0  0  0  0  0  0  0  0  0
  -19.9417  -20.8202   -3.2512 H   0  0  0  0  0  0  0  0  0  0  0  0
  -23.3319  -21.0063    1.1749 H   0  0  0  0  0  0  0  0  0  0  0  0
  -22.7336  -20.1714   -0.2975 H   0  0  0  0  0  0  0  0  0  0  0  0
  -20.5841  -21.1405    1.5626 H   0  0  0  0  0  0  0  0  0  0  0  0
  -20.9732  -23.3838   -1.0637 H   0  0  0  0  0  0  0  0  0  0  0  0
  -21.4782  -25.7968   -0.7355 H   0  0  0  0  0  0  0  0  0  0  0  0
  -22.5878  -22.4946    2.8237 H   0  0  0  0  0  0  0  0  0  0  0  0
  -17.9505  -21.1336   -4.8260 H   0  0  0  0  0  0  0  0  0  0  0  0
  1 12  2  0
  1 27  1  0
  2  3  2  0
  2  9  1  0
  2 28  1  0
  3  5  1  0
  4 16  1  0
  4 25  1  0
  5 11  2  0
  6 14  2  0
  7 12  1  0
  7 13  2  0
  7 25  1  0
  8  9  2  0
  8 11  1  0
  8 29  1  0
 10 14  1  0
 11 12  1  0
 13 27  1  0
 14 15  1  0
 16 15  1  0
 16 17  1  0
 17 18  2  0
 17 24  1  0
 18 19  1  0
 19 20  2  0
 20 21  1  0
 20 22  1  0
 22 23  1  0
 22 24  2  0
 25 26  2  0
  3 30  1  0
  4 31  1  0
  5 32  1  0
  9 33  1  0
 10 34  1  0
 10 35  1  0
 13 36  1  0
 15 37  1  0
 15 38  1  0
 16 39  1  1
 18 40  1  0
 19 41  1  0
 24 42  1  0
 27 43  1  0
M  END
>  <filename_input>  (3) 
8F8E_XJI_docked.sdf

>  <pdb_id>  (3) 
8F8E_XJI

>  <pose_rank>  (3) 
2

>  <num_atoms_heavy>  (3) 
29

>  <num_torsions>  (3) 
6

>  <pose>  (3) 
[-20.466613707735977, -21.128970918651206, -0.4902149342839906, 1.0693451503936273, 3.025481802653685, -0.8036162333758213, -31.10729480017709, -0.7246868250229563, -0.2446205829682823, -2.8137347279438805, -0.7146166903861105, -0.05450455572106867]

>  <energy>  (3) 
-699.0271991354797

>  <inter_energy>  (3) 
-704.9177009970648

>  <intra_energy>  (3) 
12.167591714530479

>  <rmsd>  (3) 
7.03281

>  <sdf_rank>  (3) 
0

$$$$

     RDKit          3D

 43 45  0  0  0  0  0  0  0  0999 V2000
  -23.3994  -17.0119    2.2026 N   0  0  0  0  0  0  0  0  0  0  0  0
  -25.2144  -17.2764   -2.4942 C   0  0  0  0  0  0  0  0  0  0  0  0
  -25.8397  -17.9039   -1.4506 C   0  0  0  0  0  0  0  0  0  0  0  0
  -20.5352  -20.4623    0.9301 N   0  0  0  0  0  0  0  0  0  0  0  0
  -25.1642  -18.0616   -0.2575 C   0  0  0  0  0  0  0  0  0  0  0  0
  -22.0322  -23.6190    1.4299 O   0  0  0  0  0  0  0  0  0  0  0  0
  -22.1906  -18.8098    1.4860 C   0  0  0  0  0  0  0  0  0  0  0  0
  -23.2908  -16.9507   -1.1828 C   0  0  0  0  0  0  0  0  0  0  0  0
  -23.9323  -16.7817   -2.3857 C   0  0  0  0  0  0  0  0  0  0  0  0
  -21.8149  -24.6919   -0.5359 N   0  0  0  0  0  0  0  0  0  0  0  0
  -23.8642  -17.5956   -0.1012 C   0  0  0  0  0  0  0  0  0  0  0  0
  -23.1535  -17.8234    1.1616 C   0  0  0  0  0  0  0  0  0  0  0  0
  -21.8474  -18.5325    2.7890 C   0  0  0  0  0  0  0  0  0  0  0  0
  -21.6964  -23.6325    0.2472 C   0  0  0  0  0  0  0  0  0  0  0  0
  -21.2790  -22.3569   -0.4331 C   0  0  0  0  0  0  0  0  0  0  0  0
  -20.1197  -21.7334    0.3323 C   0  0  1  0  0  0  0  0  0  0  0  0
  -18.9491  -21.6047   -0.6083 C   0  0  0  0  0  0  0  0  0  0  0  0
  -19.1237  -21.8428   -1.9672 C   0  0  0  0  0  0  0  0  0  0  0  0
  -18.1094  -21.5835   -2.8746 C   0  0  0  0  0  0  0  0  0  0  0  0
  -16.9271  -21.0735   -2.4118 C   0  0  0  0  0  0  0  0  0  0  0  0
  -15.9838  -20.6883   -3.3084 F   0  0  0  0  0  0  0  0  0  0  0  0
  -16.7168  -20.8584   -1.0557 C   0  0  0  0  0  0  0  0  0  0  0  0
  -15.1957  -20.2717   -0.4742 Cl  0  0  0  0  0  0  0  0  0  0  0  0
  -17.7259  -21.1303   -0.1579 C   0  0  0  0  0  0  0  0  0  0  0  0
  -21.7363  -19.9430    0.6506 C   0  0  0  0  0  0  0  0  0  0  0  0
  -22.4523  -20.3918   -0.2292 O   0  0  0  0  0  0  0  0  0  0  0  0
  -22.5768  -17.4760    3.1691 N   0  0  0  0  0  0  0  0  0  0  0  0
  -26.0602  -17.1038   -3.9981 Cl  0  0  0  0  0  0  0  0  0  0  0  0
  -22.0413  -16.4730   -1.0659 F   0  0  0  0  0  0  0  0  0  0  0  0
  -26.8682  -18.2779   -1.5616 H   0  0  0  0  0  0  0  0  0  0  0  0
  -19.8989  -19.9652    1.5695 H   0  0  0  0  0  0  0  0  0  0  0  0
  -25.6630  -18.5647    0.5839 H   0  0  0  0  0  0  0  0  0  0  0  0
  -23.4426  -16.2720   -3.2286 H   0  0  0  0  0  0  0  0  0  0  0  0
  -21.5153  -24.6410   -1.5201 H   0  0  0  0  0  0  0  0  0  0  0  0
  -22.2067  -25.5678   -0.1616 H   0  0  0  0  0  0  0  0  0  0  0  0
  -21.1132  -19.0756    3.4021 H   0  0  0  0  0  0  0  0  0  0  0  0
  -20.9629  -22.5766   -1.4636 H   0  0  0  0  0  0  0  0  0  0  0  0
  -22.1265  -21.6559   -0.4529 H   0  0  0  0  0  0  0  0  0  0  0  0
  -19.8058  -22.3694    1.1731 H   0  0  0  0  0  0  0  0  0  0  0  0
  -20.0826  -22.2435   -2.3274 H   0  0  0  0  0  0  0  0  0  0  0  0
  -18.2519  -21.7838   -3.9468 H   0  0  0  0  0  0  0  0  0  0  0  0
  -17.5613  -20.9709    0.9180 H   0  0  0  0  0  0  0  0  0  0  0  0
  -22.5168  -17.0571    4.1082 H   0  0  0  0  0  0  0  0  0  0  0  0
  1 12  2  0
  1 27  1  0
  2  3  2  0
  2  9  1  0
  2 28  1  0
  3  5  1  0
  4 16  1  0
  4 25  1  0
  5 11  2  0
  6 14  2  0
  7 12  1  0
  7 13  2  0
  7 25  1  0
  8  9  2  0
  8 11  1  0
  8 29  1  0
 10 14  1  0
 11 12  1  0
 13 27  1  0
 14 15  1  0
 16 15  1  0
 16 17  1  0
 17 18  2  0
 17 24  1  0
 18 19  1  0
 19 20  2  0
 20 21  1  0
 20 22  1  0
 22 23  1  0
 22 24  2  0
 25 26  2  0
  3 30  1  0
  4 31  1  0
  5 32  1  0
  9 33  1  0
 10 34  1  0
 10 35  1  0
 13 36  1  0
 15 37  1  0
 15 38  1  0
 16 39  1  1
 18 40  1  0
 19 41  1  0
 24 42  1  0
 27 43  1  0
M  END
>  <filename_input>  (4) 
8F8E_XJI_docked.sdf

>  <pdb_id>  (4) 
8F8E_XJI

>  <pose_rank>  (4) 
3

>  <num_atoms_heavy>  (4) 
29

>  <num_torsions>  (4) 
6

>  <pose>  (4) 
[-20.53523074621622, -20.462301300126896, 0.9300509770695728, -0.22793080625802747, 0.3712688241198518, 0.16292394401092675, -0.3739550431663356, -0.347892212923018, -2.695149007705174, -4.744009779634812, -1.0204565677714426, 2.0218540651853734]

>  <energy>  (4) 
-631.6465501022615

>  <inter_energy>  (4) 
-696.2295810950279

>  <intra_energy>  (4) 
59.31719773355642

>  <rmsd>  (4) 
4.18698

>  <sdf_rank>  (4) 
0

$$$$

     RDKit          3D

 43 45  0  0  0  0  0  0  0  0999 V2000
  -14.7132  -22.1000   -0.9598 N   0  0  0  0  0  0  0  0  0  0  0  0
  -17.6989  -21.2545   -4.9395 C   0  0  0  0  0  0  0  0  0  0  0  0
  -17.2805  -20.1604   -4.2310 C   0  0  0  0  0  0  0  0  0  0  0  0
  -18.9715  -22.1079    0.5132 N   0  0  0  0  0  0  0  0  0  0  0  0
  -16.7147  -20.3412   -2.9853 C   0  0  0  0  0  0  0  0  0  0  0  0
  -21.1903  -19.2920    1.3251 O   0  0  0  0  0  0  0  0  0  0  0  0
  -16.6421  -21.6262    0.1636 C   0  0  0  0  0  0  0  0  0  0  0  0
  -16.9863  -22.6809   -3.2122 C   0  0  0  0  0  0  0  0  0  0  0  0
  -17.5584  -22.5365   -4.4528 C   0  0  0  0  0  0  0  0  0  0  0  0
  -22.0052  -19.0568   -0.7590 N   0  0  0  0  0  0  0  0  0  0  0  0
  -16.5650  -21.6115   -2.4419 C   0  0  0  0  0  0  0  0  0  0  0  0
  -16.0073  -21.7684   -1.0942 C   0  0  0  0  0  0  0  0  0  0  0  0
  -15.6544  -21.9156    1.0762 C   0  0  0  0  0  0  0  0  0  0  0  0
  -21.5043  -19.7695    0.2364 C   0  0  0  0  0  0  0  0  0  0  0  0
  -21.1665  -21.2000   -0.0856 C   0  0  0  0  0  0  0  0  0  0  0  0
  -20.3025  -21.7768    1.0276 C   0  0  1  0  0  0  0  0  0  0  0  0
  -21.0290  -22.9540    1.6260 C   0  0  0  0  0  0  0  0  0  0  0  0
  -21.3732  -22.9429    2.9732 C   0  0  0  0  0  0  0  0  0  0  0  0
  -22.1733  -23.9357    3.5150 C   0  0  0  0  0  0  0  0  0  0  0  0
  -22.6344  -24.9294    2.6953 C   0  0  0  0  0  0  0  0  0  0  0  0
  -23.5287  -25.8235    3.1882 F   0  0  0  0  0  0  0  0  0  0  0  0
  -22.2774  -24.9808    1.3538 C   0  0  0  0  0  0  0  0  0  0  0  0
  -22.8152  -26.2764    0.3398 Cl  0  0  0  0  0  0  0  0  0  0  0  0
  -21.4712  -23.9966    0.8250 C   0  0  0  0  0  0  0  0  0  0  0  0
  -18.0221  -21.1681    0.4362 C   0  0  0  0  0  0  0  0  0  0  0  0
  -18.2600  -19.9847    0.6122 O   0  0  0  0  0  0  0  0  0  0  0  0
  -14.5442  -22.1860    0.3782 N   0  0  0  0  0  0  0  0  0  0  0  0
  -18.4316  -21.0182   -6.4933 Cl  0  0  0  0  0  0  0  0  0  0  0  0
  -16.8447  -23.9253   -2.7279 F   0  0  0  0  0  0  0  0  0  0  0  0
  -17.3939  -19.1495   -4.6495 H   0  0  0  0  0  0  0  0  0  0  0  0
  -18.7652  -23.0700    0.2088 H   0  0  0  0  0  0  0  0  0  0  0  0
  -16.3765  -19.4649   -2.4127 H   0  0  0  0  0  0  0  0  0  0  0  0
  -17.8910  -23.4089   -5.0344 H   0  0  0  0  0  0  0  0  0  0  0  0
  -22.2492  -19.5150   -1.6486 H   0  0  0  0  0  0  0  0  0  0  0  0
  -22.1513  -18.0437   -0.6445 H   0  0  0  0  0  0  0  0  0  0  0  0
  -15.7571  -21.9234    2.1714 H   0  0  0  0  0  0  0  0  0  0  0  0
  -22.0936  -21.7858   -0.1719 H   0  0  0  0  0  0  0  0  0  0  0  0
  -20.6174  -21.2433   -1.0377 H   0  0  0  0  0  0  0  0  0  0  0  0
  -20.1376  -21.0419    1.8293 H   0  0  0  0  0  0  0  0  0  0  0  0
  -21.0042  -22.1327    3.6193 H   0  0  0  0  0  0  0  0  0  0  0  0
  -22.4330  -23.9252    4.5839 H   0  0  0  0  0  0  0  0  0  0  0  0
  -21.1776  -24.0377   -0.2343 H   0  0  0  0  0  0  0  0  0  0  0  0
  -13.6473  -22.4357    0.8188 H   0  0  0  0  0  0  0  0  0  0  0  0
  1 12  2  0
  1 27  1  0
  2  3  2  0
  2  9  1  0
  2 28  1  0
  3  5  1  0
  4 16  1  0
  4 25  1  0
  5 11  2  0
  6 14  2  0
  7 12  1  0
  7 13  2  0
  7 25  1  0
  8  9  2  0
  8 11  1  0
  8 29  1  0
 10 14  1  0
 11 12  1  0
 13 27  1  0
 14 15  1  0
 16 15  1  0
 16 17  1  0
 17 18  2  0
 17 24  1  0
 18 19  1  0
 19 20  2  0
 20 21  1  0
 20 22  1  0
 22 23  1  0
 22 24  2  0
 25 26  2  0
  3 30  1  0
  4 31  1  0
  5 32  1  0
  9 33  1  0
 10 34  1  0
 10 35  1  0
 13 36  1  0
 15 37  1  0
 15 38  1  0
 16 39  1  1
 18 40  1  0
 19 41  1  0
 24 42  1  0
 27 43  1  0
M  END
>  <filename_input>  (5) 
8F8E_XJI_docked.sdf

>  <pdb_id>  (5) 
8F8E_XJI

>  <pose_rank>  (5) 
4

>  <num_atoms_heavy>  (5) 
29

>  <num_torsions>  (5) 
6

>  <pose>  (5) 
[-18.9715241011243, -22.107877274787285, 0.5132024892382135, -0.447750434583377, -2.7628940922303458, 2.761535339545444, -1.522493201995487, -0.6792417808286101, -1.1035152270006365, -0.7179655742821527, -1.0471727864331708, 0.914521908965214]

>  <energy>  (5) 
-608.9004483992603

>  <inter_energy>  (5) 
-623.3521621659129

>  <intra_energy>  (5) 
10.305194774049353

>  <rmsd>  (5) 
6.35722

>  <sdf_rank>  (5) 
0

$$$$

     RDKit          3D

 43 45  0  0  0  0  0  0  0  0999 V2000
  -25.7373  -15.8722   -1.9446 N   0  0  0  0  0  0  0  0  0  0  0  0
  -25.7243  -14.6797    2.9071 C   0  0  0  0  0  0  0  0  0  0  0  0
  -26.6510  -15.4879    2.3055 C   0  0  0  0  0  0  0  0  0  0  0  0
  -23.0368  -18.9573   -0.0437 N   0  0  0  0  0  0  0  0  0  0  0  0
  -26.3778  -16.0135    1.0590 C   0  0  0  0  0  0  0  0  0  0  0  0
  -20.8877  -17.8004    2.7475 O   0  0  0  0  0  0  0  0  0  0  0  0
  -23.9568  -17.1828   -1.3798 C   0  0  0  0  0  0  0  0  0  0  0  0
  -24.2743  -14.9296    1.0738 C   0  0  0  0  0  0  0  0  0  0  0  0
  -24.5163  -14.3857    2.3118 C   0  0  0  0  0  0  0  0  0  0  0  0
  -23.1372  -17.7512    2.7348 N   0  0  0  0  0  0  0  0  0  0  0  0
  -25.1817  -15.7349    0.4085 C   0  0  0  0  0  0  0  0  0  0  0  0
  -24.9414  -16.2661   -0.9376 C   0  0  0  0  0  0  0  0  0  0  0  0
  -24.2187  -17.3404   -2.7210 C   0  0  0  0  0  0  0  0  0  0  0  0
  -21.9714  -18.3589    2.5886 C   0  0  0  0  0  0  0  0  0  0  0  0
  -22.0253  -19.7584    2.0386 C   0  0  0  0  0  0  0  0  0  0  0  0
  -21.9130  -19.7082    0.5209 C   0  0  1  0  0  0  0  0  0  0  0  0
  -21.8131  -21.1222    0.0089 C   0  0  0  0  0  0  0  0  0  0  0  0
  -21.0292  -21.4012   -1.1053 C   0  0  0  0  0  0  0  0  0  0  0  0
  -20.7940  -22.7065   -1.5054 C   0  0  0  0  0  0  0  0  0  0  0  0
  -21.3389  -23.7269   -0.7747 C   0  0  0  0  0  0  0  0  0  0  0  0
  -20.9987  -25.0051   -1.0788 F   0  0  0  0  0  0  0  0  0  0  0  0
  -22.1525  -23.4732    0.3222 C   0  0  0  0  0  0  0  0  0  0  0  0
  -22.8876  -24.7697    1.2024 Cl  0  0  0  0  0  0  0  0  0  0  0  0
  -22.3919  -22.1721    0.7068 C   0  0  0  0  0  0  0  0  0  0  0  0
  -22.8377  -17.7573   -0.6011 C   0  0  0  0  0  0  0  0  0  0  0  0
  -21.7763  -17.1633   -0.5089 O   0  0  0  0  0  0  0  0  0  0  0  0
  -25.2654  -16.5570   -3.0097 N   0  0  0  0  0  0  0  0  0  0  0  0
  -26.0847  -14.0026    4.4624 Cl  0  0  0  0  0  0  0  0  0  0  0  0
  -23.1008  -14.6497    0.4843 F   0  0  0  0  0  0  0  0  0  0  0  0
  -27.6019  -15.7156    2.8094 H   0  0  0  0  0  0  0  0  0  0  0  0
  -23.9862  -19.3554   -0.0113 H   0  0  0  0  0  0  0  0  0  0  0  0
  -27.1193  -16.6640    0.5721 H   0  0  0  0  0  0  0  0  0  0  0  0
  -23.7757  -13.7413    2.8082 H   0  0  0  0  0  0  0  0  0  0  0  0
  -24.0124  -18.2738    2.5877 H   0  0  0  0  0  0  0  0  0  0  0  0
  -23.1696  -16.7553    2.9957 H   0  0  0  0  0  0  0  0  0  0  0  0
  -23.6720  -17.9872   -3.4230 H   0  0  0  0  0  0  0  0  0  0  0  0
  -21.1915  -20.3469    2.4493 H   0  0  0  0  0  0  0  0  0  0  0  0
  -22.9784  -20.2289    2.3218 H   0  0  0  0  0  0  0  0  0  0  0  0
  -21.0067  -19.1718    0.2031 H   0  0  0  0  0  0  0  0  0  0  0  0
  -20.5886  -20.5719   -1.6782 H   0  0  0  0  0  0  0  0  0  0  0  0
  -20.1808  -22.9186   -2.3937 H   0  0  0  0  0  0  0  0  0  0  0  0
  -23.0433  -21.9653    1.5687 H   0  0  0  0  0  0  0  0  0  0  0  0
  -25.6720  -16.4833   -3.9532 H   0  0  0  0  0  0  0  0  0  0  0  0
  1 12  2  0
  1 27  1  0
  2  3  2  0
  2  9  1  0
  2 28  1  0
  3  5  1  0
  4 16  1  0
  4 25  1  0
  5 11  2  0
  6 14  2  0
  7 12  1  0
  7 13  2  0
  7 25  1  0
  8  9  2  0
  8 11  1  0
  8 29  1  0
 10 14  1  0
 11 12  1  0
 13 27  1  0
 14 15  1  0
 16 15  1  0
 16 17  1  0
 17 18  2  0
 17 24  1  0
 18 19  1  0
 19 20  2  0
 20 21  1  0
 20 22  1  0
 22 23  1  0
 22 24  2  0
 25 26  2  0
  3 30  1  0
  4 31  1  0
  5 32  1  0
  9 33  1  0
 10 34  1  0
 10 35  1  0
 13 36  1  0
 15 37  1  0
 15 38  1  0
 16 39  1  1
 18 40  1  0
 19 41  1  0
 24 42  1  0
 27 43  1  0
M  END
>  <filename_input>  (6) 
8F8E_XJI_docked.sdf

>  <pdb_id>  (6) 
8F8E_XJI

>  <pose_rank>  (6) 
5

>  <num_atoms_heavy>  (6) 
29

>  <num_torsions>  (6) 
6

>  <pose>  (6) 
[-23.036837188468716, -18.957288479984776, -0.04365416378639912, 0.6771072896124316, -1.8661762095681265, 0.2898464442227436, -1.4536497104847754, 2.163625840600354, -0.6497205076405291, -1.1646472458013528, -0.10673996073426067, -0.39782371899806407]

>  <energy>  (6) 
-619.035735196769

>  <inter_energy>  (6) 
-639.4324258976172

>  <intra_energy>  (6) 
26.500205467463715

>  <rmsd>  (6) 
4.27493

>  <sdf_rank>  (6) 
0

$$$$

     RDKit          3D

 43 45  0  0  0  0  0  0  0  0999 V2000
  -20.9737  -24.2671   -0.4702 N   0  0  0  0  0  0  0  0  0  0  0  0
  -17.4076  -20.8469   -1.5012 C   0  0  0  0  0  0  0  0  0  0  0  0
  -17.4646  -21.2613   -0.1977 C   0  0  0  0  0  0  0  0  0  0  0  0
  -22.1484  -20.1313    0.5916 N   0  0  0  0  0  0  0  0  0  0  0  0
  -18.5658  -21.9716    0.2353 C   0  0  0  0  0  0  0  0  0  0  0  0
  -22.4683  -17.8228    3.6381 O   0  0  0  0  0  0  0  0  0  0  0  0
  -21.8399  -22.5130    0.7045 C   0  0  0  0  0  0  0  0  0  0  0  0
  -19.4907  -21.8443   -1.9391 C   0  0  0  0  0  0  0  0  0  0  0  0
  -18.4118  -21.1310   -2.4018 C   0  0  0  0  0  0  0  0  0  0  0  0
  -20.2611  -17.3865    3.6674 N   0  0  0  0  0  0  0  0  0  0  0  0
  -19.6129  -22.2701   -0.6283 C   0  0  0  0  0  0  0  0  0  0  0  0
  -20.7934  -22.9818   -0.1263 C   0  0  0  0  0  0  0  0  0  0  0  0
  -22.6844  -23.5920    0.8269 C   0  0  0  0  0  0  0  0  0  0  0  0
  -21.3916  -17.7013    3.0570 C   0  0  0  0  0  0  0  0  0  0  0  0
  -21.2702  -18.0820    1.6063 C   0  0  0  0  0  0  0  0  0  0  0  0
  -22.5187  -18.8412    1.1782 C   0  0  1  0  0  0  0  0  0  0  0  0
  -23.3105  -17.9591    0.2472 C   0  0  0  0  0  0  0  0  0  0  0  0
  -24.0004  -18.5226   -0.8205 C   0  0  0  0  0  0  0  0  0  0  0  0
  -24.8583  -17.7624   -1.5986 C   0  0  0  0  0  0  0  0  0  0  0  0
  -25.0281  -16.4401   -1.2908 C   0  0  0  0  0  0  0  0  0  0  0  0
  -25.9692  -15.7270   -1.9600 F   0  0  0  0  0  0  0  0  0  0  0  0
  -24.3252  -15.8464   -0.2501 C   0  0  0  0  0  0  0  0  0  0  0  0
  -24.5001  -14.1586    0.0917 Cl  0  0  0  0  0  0  0  0  0  0  0  0
  -23.4643  -16.6061    0.5115 C   0  0  0  0  0  0  0  0  0  0  0  0
  -21.9466  -21.1980    1.3738 C   0  0  0  0  0  0  0  0  0  0  0  0
  -21.8829  -21.1130    2.5890 O   0  0  0  0  0  0  0  0  0  0  0  0
  -22.1410  -24.5953    0.1263 N   0  0  0  0  0  0  0  0  0  0  0  0
  -16.0325  -19.9335   -2.0321 Cl  0  0  0  0  0  0  0  0  0  0  0  0
  -20.4751  -22.1264   -2.8076 F   0  0  0  0  0  0  0  0  0  0  0  0
  -16.6427  -21.0309    0.4961 H   0  0  0  0  0  0  0  0  0  0  0  0
  -22.0427  -20.2180   -0.4293 H   0  0  0  0  0  0  0  0  0  0  0  0
  -18.6155  -22.3071    1.2817 H   0  0  0  0  0  0  0  0  0  0  0  0
  -18.3516  -20.7997   -3.4490 H   0  0  0  0  0  0  0  0  0  0  0  0
  -19.3899  -17.2993    3.1249 H   0  0  0  0  0  0  0  0  0  0  0  0
  -20.2521  -17.2284    4.6852 H   0  0  0  0  0  0  0  0  0  0  0  0
  -23.6272  -23.6244    1.3928 H   0  0  0  0  0  0  0  0  0  0  0  0
  -21.1657  -17.1730    0.9956 H   0  0  0  0  0  0  0  0  0  0  0  0
  -20.3852  -18.7199    1.4659 H   0  0  0  0  0  0  0  0  0  0  0  0
  -23.1592  -19.0789    2.0404 H   0  0  0  0  0  0  0  0  0  0  0  0
  -23.8627  -19.5893   -1.0512 H   0  0  0  0  0  0  0  0  0  0  0  0
  -25.3929  -18.2133   -2.4477 H   0  0  0  0  0  0  0  0  0  0  0  0
  -22.8979  -16.1388    1.3306 H   0  0  0  0  0  0  0  0  0  0  0  0
  -22.5713  -25.5280    0.0494 H   0  0  0  0  0  0  0  0  0  0  0  0
  1 12  2  0
  1 27  1  0
  2  3  2  0
  2  9  1  0
  2 28  1  0
  3  5  1  0
  4 16  1  0
  4 25  1  0
  5 11  2  0
  6 14  2  0
  7 12  1  0
  7 13  2  0
  7 25  1  0
  8  9  2  0
  8 11  1  0
  8 29  1  0
 10 14  1  0
 11 12  1  0
 13 27  1  0
 14 15  1  0
 16 15  1  0
 16 17  1  0
 17 18  2  0
 17 24  1  0
 18 19  1  0
 19 20  2  0
 20 21  1  0
 20 22  1  0
 22 23  1  0
 22 24  2  0
 25 26  2  0
  3 30  1  0
  4 31  1  0
  5 32  1  0
  9 33  1  0
 10 34  1  0
 10 35  1  0
 13 36  1  0
 15 37  1  0
 15 38  1  0
 16 39  1  1
 18 40  1  0
 19 41  1  0
 24 42  1  0
 27 43  1  0
M  END
>  <filename_input>  (7) 
8F8E_XJI_docked.sdf

>  <pdb_id>  (7) 
8F8E_XJI

>  <pose_rank>  (7) 
6

>  <num_atoms_heavy>  (7) 
29

>  <num_torsions>  (7) 
6

>  <pose>  (7) 
[-22.148417481653905, -20.13133974903608, 0.591614337244318, 2.730570739855542, 1.2391491941415054, -0.6187680316095112, -1.9084724005942733, -0.8111159015169298, -1.0849919195649977, 3.891464028470901, -1.2246200518062968, 0.8300788039980732]

>  <energy>  (7) 
-636.2349029006666

>  <inter_energy>  (7) 
-640.1668630948703

>  <intra_energy>  (7) 
10.056456716130999

>  <rmsd>  (7) 
7.15341

>  <sdf_rank>  (7) 
0

$$$$

     RDKit          3D

 43 45  0  0  0  0  0  0  0  0999 V2000
  -15.6400  -20.0774   -0.6081 N   0  0  0  0  0  0  0  0  0  0  0  0
  -17.2080  -21.8299   -5.0162 C   0  0  0  0  0  0  0  0  0  0  0  0
  -16.1963  -22.3526   -4.2563 C   0  0  0  0  0  0  0  0  0  0  0  0
  -19.9195  -20.7232    1.0291 N   0  0  0  0  0  0  0  0  0  0  0  0
  -16.0827  -21.9738   -2.9341 C   0  0  0  0  0  0  0  0  0  0  0  0
  -20.5628  -23.8821    1.9431 O   0  0  0  0  0  0  0  0  0  0  0  0
  -17.6943  -20.7541    0.1194 C   0  0  0  0  0  0  0  0  0  0  0  0
  -17.9901  -20.5942   -3.1757 C   0  0  0  0  0  0  0  0  0  0  0  0
  -18.1290  -20.9458   -4.4963 C   0  0  0  0  0  0  0  0  0  0  0  0
  -22.5840  -23.8948    0.9544 N   0  0  0  0  0  0  0  0  0  0  0  0
  -16.9755  -21.0730   -2.3658 C   0  0  0  0  0  0  0  0  0  0  0  0
  -16.7986  -20.6498   -0.9724 C   0  0  0  0  0  0  0  0  0  0  0  0
  -16.9965  -20.2274    1.1815 C   0  0  0  0  0  0  0  0  0  0  0  0
  -21.5867  -23.3009    1.5886 C   0  0  0  0  0  0  0  0  0  0  0  0
  -21.8366  -21.8815    2.0211 C   0  0  0  0  0  0  0  0  0  0  0  0
  -21.3660  -20.9312    0.9284 C   0  0  1  0  0  0  0  0  0  0  0  0
  -22.1681  -19.6594    1.0326 C   0  0  0  0  0  0  0  0  0  0  0  0
  -22.0684  -18.8697    2.1727 C   0  0  0  0  0  0  0  0  0  0  0  0
  -22.6702  -17.6233    2.2340 C   0  0  0  0  0  0  0  0  0  0  0  0
  -23.3597  -17.1712    1.1421 C   0  0  0  0  0  0  0  0  0  0  0  0
  -23.8313  -15.8986    1.1455 F   0  0  0  0  0  0  0  0  0  0  0  0
  -23.5015  -17.9551    0.0041 C   0  0  0  0  0  0  0  0  0  0  0  0
  -24.4283  -17.3996   -1.3481 Cl  0  0  0  0  0  0  0  0  0  0  0  0
  -22.9106  -19.1988   -0.0448 C   0  0  0  0  0  0  0  0  0  0  0  0
  -19.0970  -21.2238    0.1000 C   0  0  0  0  0  0  0  0  0  0  0  0
  -19.4770  -22.0088   -0.7528 O   0  0  0  0  0  0  0  0  0  0  0  0
  -15.8023  -19.8436    0.7130 N   0  0  0  0  0  0  0  0  0  0  0  0
  -17.3299  -22.2912   -6.6833 Cl  0  0  0  0  0  0  0  0  0  0  0  0
  -18.8815  -19.7332   -2.6588 F   0  0  0  0  0  0  0  0  0  0  0  0
  -15.4827  -23.0660   -4.6943 H   0  0  0  0  0  0  0  0  0  0  0  0
  -19.5332  -20.1883    1.8200 H   0  0  0  0  0  0  0  0  0  0  0  0
  -15.2717  -22.3918   -2.3197 H   0  0  0  0  0  0  0  0  0  0  0  0
  -18.9427  -20.5382   -5.1143 H   0  0  0  0  0  0  0  0  0  0  0  0
  -23.4171  -23.3533    0.6830 H   0  0  0  0  0  0  0  0  0  0  0  0
  -22.5275  -24.8989    0.7319 H   0  0  0  0  0  0  0  0  0  0  0  0
  -17.3520  -20.1384    2.2186 H   0  0  0  0  0  0  0  0  0  0  0  0
  -22.9125  -21.7351    2.1969 H   0  0  0  0  0  0  0  0  0  0  0  0
  -21.2839  -21.6770    2.9500 H   0  0  0  0  0  0  0  0  0  0  0  0
  -21.5371  -21.3544   -0.0724 H   0  0  0  0  0  0  0  0  0  0  0  0
  -21.5026  -19.2406    3.0400 H   0  0  0  0  0  0  0  0  0  0  0  0
  -22.5950  -17.0087    3.1432 H   0  0  0  0  0  0  0  0  0  0  0  0
  -23.0279  -19.8275   -0.9397 H   0  0  0  0  0  0  0  0  0  0  0  0
  -15.0768  -19.4117    1.3029 H   0  0  0  0  0  0  0  0  0  0  0  0
  1 12  2  0
  1 27  1  0
  2  3  2  0
  2  9  1  0
  2 28  1  0
  3  5  1  0
  4 16  1  0
  4 25  1  0
  5 11  2  0
  6 14  2  0
  7 12  1  0
  7 13  2  0
  7 25  1  0
  8  9  2  0
  8 11  1  0
  8 29  1  0
 10 14  1  0
 11 12  1  0
 13 27  1  0
 14 15  1  0
 16 15  1  0
 16 17  1  0
 17 18  2  0
 17 24  1  0
 18 19  1  0
 19 20  2  0
 20 21  1  0
 20 22  1  0
 22 23  1  0
 22 24  2  0
 25 26  2  0
  3 30  1  0
  4 31  1  0
  5 32  1  0
  9 33  1  0
 10 34  1  0
 10 35  1  0
 13 36  1  0
 15 37  1  0
 15 38  1  0
 16 39  1  6
 18 40  1  0
 19 41  1  0
 24 42  1  0
 27 43  1  0
M  END
>  <filename_input>  (8) 
8F8E_XJI_docked.sdf

>  <pdb_id>  (8) 
8F8E_XJI

>  <pose_rank>  (8) 
7

>  <num_atoms_heavy>  (8) 
29

>  <num_torsions>  (8) 
6

>  <pose>  (8) 
[-19.919540719162082, -20.72320480792793, 1.0291186032228972, -1.0474697785303295, -0.8501622280970071, -1.881155283215949, -5.763991180076093, -4.220874171788611, 5.6321813309394875, 2.4812472769613247, -0.4631042065957231, 2.6962314322530094]

>  <energy>  (8) 
-598.367297681416

>  <inter_energy>  (8) 
-607.7212052220787

>  <intra_energy>  (8) 
22.458758909867754

>  <rmsd>  (8) 
7.05799

>  <sdf_rank>  (8) 
0

$$$$

     RDKit          3D

 43 45  0  0  0  0  0  0  0  0999 V2000
  -20.7402  -18.0532    2.3034 N   0  0  0  0  0  0  0  0  0  0  0  0
  -16.2472  -19.3559    0.5476 C   0  0  0  0  0  0  0  0  0  0  0  0
  -16.5975  -19.0560    1.8365 C   0  0  0  0  0  0  0  0  0  0  0  0
  -20.3932  -22.1102    0.7519 N   0  0  0  0  0  0  0  0  0  0  0  0
  -17.9342  -19.0018    2.1757 C   0  0  0  0  0  0  0  0  0  0  0  0
  -18.0284  -22.4456   -1.0067 O   0  0  0  0  0  0  0  0  0  0  0  0
  -21.4115  -20.0178    1.3563 C   0  0  0  0  0  0  0  0  0  0  0  0
  -18.5113  -19.5645   -0.0492 C   0  0  0  0  0  0  0  0  0  0  0  0
  -17.1904  -19.6216   -0.4219 C   0  0  0  0  0  0  0  0  0  0  0  0
  -17.1372  -22.9005    1.0087 N   0  0  0  0  0  0  0  0  0  0  0  0
  -18.9250  -19.2454    1.2320 C   0  0  0  0  0  0  0  0  0  0  0  0
  -20.3378  -19.1301    1.6098 C   0  0  0  0  0  0  0  0  0  0  0  0
  -22.4937  -19.4220    1.9616 C   0  0  0  0  0  0  0  0  0  0  0  0
  -17.9963  -23.1128    0.0256 C   0  0  0  0  0  0  0  0  0  0  0  0
  -19.0744  -24.1252    0.3033 C   0  0  0  0  0  0  0  0  0  0  0  0
  -20.4371  -23.4574    0.1786 C   0  0  1  0  0  0  0  0  0  0  0  0
  -21.4623  -24.3550    0.8227 C   0  0  0  0  0  0  0  0  0  0  0  0
  -21.7429  -25.5973    0.2645 C   0  0  0  0  0  0  0  0  0  0  0  0
  -22.5620  -26.5053    0.9156 C   0  0  0  0  0  0  0  0  0  0  0  0
  -23.0857  -26.1638    2.1327 C   0  0  0  0  0  0  0  0  0  0  0  0
  -23.7726  -27.0993    2.8364 F   0  0  0  0  0  0  0  0  0  0  0  0
  -22.8471  -24.9165    2.6956 C   0  0  0  0  0  0  0  0  0  0  0  0
  -23.5648  -24.4711    4.2064 Cl  0  0  0  0  0  0  0  0  0  0  0  0
  -22.0414  -24.0140    2.0362 C   0  0  0  0  0  0  0  0  0  0  0  0
  -21.3955  -21.2500    0.5377 C   0  0  0  0  0  0  0  0  0  0  0  0
  -22.2830  -21.4704   -0.2696 O   0  0  0  0  0  0  0  0  0  0  0  0
  -22.0581  -18.2770    2.5020 N   0  0  0  0  0  0  0  0  0  0  0  0
  -14.5665  -19.3978    0.1228 Cl  0  0  0  0  0  0  0  0  0  0  0  0
  -19.4388  -19.8212   -0.9857 F   0  0  0  0  0  0  0  0  0  0  0  0
  -15.8230  -18.8604    2.5928 H   0  0  0  0  0  0  0  0  0  0  0  0
  -19.5858  -21.8232    1.3234 H   0  0  0  0  0  0  0  0  0  0  0  0
  -18.2202  -18.7618    3.2104 H   0  0  0  0  0  0  0  0  0  0  0  0
  -16.8970  -19.8693   -1.4527 H   0  0  0  0  0  0  0  0  0  0  0  0
  -17.1600  -23.4945    1.8499 H   0  0  0  0  0  0  0  0  0  0  0  0
  -16.4453  -22.1413    0.9330 H   0  0  0  0  0  0  0  0  0  0  0  0
  -23.5216  -19.8122    1.9954 H   0  0  0  0  0  0  0  0  0  0  0  0
  -19.0010  -24.9484   -0.4226 H   0  0  0  0  0  0  0  0  0  0  0  0
  -18.9516  -24.5239    1.3211 H   0  0  0  0  0  0  0  0  0  0  0  0
  -20.7235  -23.3236   -0.8750 H   0  0  0  0  0  0  0  0  0  0  0  0
  -21.3074  -25.8634   -0.7100 H   0  0  0  0  0  0  0  0  0  0  0  0
  -22.7872  -27.4821    0.4627 H   0  0  0  0  0  0  0  0  0  0  0  0
  -21.8571  -23.0214    2.4729 H   0  0  0  0  0  0  0  0  0  0  0  0
  -22.6689  -17.6288    3.0193 H   0  0  0  0  0  0  0  0  0  0  0  0
  1 12  2  0
  1 27  1  0
  2  3  2  0
  2  9  1  0
  2 28  1  0
  3  5  1  0
  4 16  1  0
  4 25  1  0
  5 11  2  0
  6 14  2  0
  7 12  1  0
  7 13  2  0
  7 25  1  0
  8  9  2  0
  8 11  1  0
  8 29  1  0
 10 14  1  0
 11 12  1  0
 13 27  1  0
 14 15  1  0
 16 15  1  0
 16 17  1  0
 17 18  2  0
 17 24  1  0
 18 19  1  0
 19 20  2  0
 20 21  1  0
 20 22  1  0
 22 23  1  0
 22 24  2  0
 25 26  2  0
  3 30  1  0
  4 31  1  0
  5 32  1  0
  9 33  1  0
 10 34  1  0
 10 35  1  0
 13 36  1  0
 15 37  1  0
 15 38  1  0
 16 39  1  6
 18 40  1  0
 19 41  1  0
 24 42  1  0
 27 43  1  0
M  END
>  <filename_input>  (9) 
8F8E_XJI_docked.sdf

>  <pdb_id>  (9) 
8F8E_XJI

>  <pose_rank>  (9) 
8

>  <num_atoms_heavy>  (9) 
29

>  <num_torsions>  (9) 
6

>  <pose>  (9) 
[-20.393219520369723, -22.110159394518227, 0.751898604454102, -0.19017520368471932, 0.48128708912658985, -0.1426436963104079, -2.286979938634274, 1.877340749208281, 0.35137184733161286, 0.21917774570799428, 0.27484865480254855, 0.11124117388905452]

>  <energy>  (9) 
-554.9739537750825

>  <inter_energy>  (9) 
-633.5493245794831

>  <intra_energy>  (9) 
80.62738792447315

>  <rmsd>  (9) 
4.6328

>  <sdf_rank>  (9) 
0

$$$$

     RDKit          3D

 43 45  0  0  0  0  0  0  0  0999 V2000
  -25.0904  -17.5559    0.0161 N   0  0  0  0  0  0  0  0  0  0  0  0
  -23.5841  -15.8332    4.4739 C   0  0  0  0  0  0  0  0  0  0  0  0
  -23.9431  -17.1523    4.5438 C   0  0  0  0  0  0  0  0  0  0  0  0
  -22.3872  -21.2931    0.7234 N   0  0  0  0  0  0  0  0  0  0  0  0
  -24.1267  -17.8630    3.3750 C   0  0  0  0  0  0  0  0  0  0  0  0
  -22.4238  -23.5813    2.9747 O   0  0  0  0  0  0  0  0  0  0  0  0
  -23.6456  -19.2582    0.4871 C   0  0  0  0  0  0  0  0  0  0  0  0
  -23.5702  -15.9321    2.1252 C   0  0  0  0  0  0  0  0  0  0  0  0
  -23.3844  -15.1941    3.2689 C   0  0  0  0  0  0  0  0  0  0  0  0
  -23.0878  -25.1008    1.4538 N   0  0  0  0  0  0  0  0  0  0  0  0
  -23.9539  -17.2615    2.1341 C   0  0  0  0  0  0  0  0  0  0  0  0
  -24.2062  -18.0283    0.9092 C   0  0  0  0  0  0  0  0  0  0  0  0
  -24.2637  -19.5176   -0.7142 C   0  0  0  0  0  0  0  0  0  0  0  0
  -22.3166  -24.1099    1.8698 C   0  0  0  0  0  0  0  0  0  0  0  0
  -21.3865  -23.5259    0.8412 C   0  0  0  0  0  0  0  0  0  0  0  0
  -21.1928  -22.0419    1.1215 C   0  0  1  0  0  0  0  0  0  0  0  0
  -19.9359  -21.5905    0.4229 C   0  0  0  0  0  0  0  0  0  0  0  0
  -18.7199  -21.6231    1.0964 C   0  0  0  0  0  0  0  0  0  0  0  0
  -17.5298  -21.3632    0.4365 C   0  0  0  0  0  0  0  0  0  0  0  0
  -17.5674  -21.0837   -0.9024 C   0  0  0  0  0  0  0  0  0  0  0  0
  -16.3976  -20.9661   -1.5805 F   0  0  0  0  0  0  0  0  0  0  0  0
  -18.7722  -21.0126   -1.5902 C   0  0  0  0  0  0  0  0  0  0  0  0
  -18.8136  -20.5969   -3.2699 Cl  0  0  0  0  0  0  0  0  0  0  0  0
  -19.9527  -21.2601   -0.9243 C   0  0  0  0  0  0  0  0  0  0  0  0
  -22.5656  -20.0330    1.1367 C   0  0  0  0  0  0  0  0  0  0  0  0
  -21.8582  -19.5192    1.9872 O   0  0  0  0  0  0  0  0  0  0  0  0
  -25.0989  -18.4985   -0.9522 N   0  0  0  0  0  0  0  0  0  0  0  0
  -23.3794  -14.9399    5.9460 Cl  0  0  0  0  0  0  0  0  0  0  0  0
  -23.3788  -15.3197    0.9457 F   0  0  0  0  0  0  0  0  0  0  0  0
  -24.0837  -17.6400    5.5197 H   0  0  0  0  0  0  0  0  0  0  0  0
  -23.0941  -21.7394    0.1216 H   0  0  0  0  0  0  0  0  0  0  0  0
  -24.4146  -18.9234    3.4265 H   0  0  0  0  0  0  0  0  0  0  0  0
  -23.0882  -14.1357    3.2249 H   0  0  0  0  0  0  0  0  0  0  0  0
  -22.9487  -25.5027    0.5157 H   0  0  0  0  0  0  0  0  0  0  0  0
  -23.8275  -25.4704    2.0680 H   0  0  0  0  0  0  0  0  0  0  0  0
  -24.1025  -20.3956   -1.3570 H   0  0  0  0  0  0  0  0  0  0  0  0
  -20.4147  -24.0390    0.8913 H   0  0  0  0  0  0  0  0  0  0  0  0
  -21.8176  -23.6579   -0.1621 H   0  0  0  0  0  0  0  0  0  0  0  0
  -21.0658  -21.8499    2.1972 H   0  0  0  0  0  0  0  0  0  0  0  0
  -18.7025  -21.8591    2.1706 H   0  0  0  0  0  0  0  0  0  0  0  0
  -16.5728  -21.3813    0.9785 H   0  0  0  0  0  0  0  0  0  0  0  0
  -20.9102  -21.1956   -1.4619 H   0  0  0  0  0  0  0  0  0  0  0  0
  -25.6911  -18.4387   -1.7928 H   0  0  0  0  0  0  0  0  0  0  0  0
  1 12  2  0
  1 27  1  0
  2  3  2  0
  2  9  1  0
  2 28  1  0
  3  5  1  0
  4 16  1  0
  4 25  1  0
  5 11  2  0
  6 14  2  0
  7 12  1  0
  7 13  2  0
  7 25  1  0
  8  9  2  0
  8 11  1  0
  8 29  1  0
 10 14  1  0
 11 12  1  0
 13 27  1  0
 14 15  1  0
 16 15  1  0
 16 17  1  0
 17 18  2  0
 17 24  1  0
 18 19  1  0
 19 20  2  0
 20 21  1  0
 20 22  1  0
 22 23  1  0
 22 24  2  0
 25 26  2  0
  3 30  1  0
  4 31  1  0
  5 32  1  0
  9 33  1  0
 10 34  1  0
 10 35  1  0
 13 36  1  0
 15 37  1  0
 15 38  1  0
 16 39  1  1
 18 40  1  0
 19 41  1  0
 24 42  1  0
 27 43  1  0
M  END
>  <filename_input>  (10) 
8F8E_XJI_docked.sdf

>  <pdb_id>  (10) 
8F8E_XJI

>  <pose_rank>  (10) 
9

>  <num_atoms_heavy>  (10) 
29

>  <num_torsions>  (10) 
6

>  <pose>  (10) 
[-22.38720129269575, -21.293127369343296, 0.7234012814530932, -2.039002915391506, 2.9905494034000824, 0.1565566006283675, -6.4999602559061405, -9.343836687859472, 0.3105864127535995, 6.058433180811754, -0.3367554551800715, 0.5908778635356489]

>  <energy>  (10) 
-554.8005678873435

>  <inter_energy>  (10) 
-596.688492799685

>  <intra_energy>  (10) 
29.3852304619335

>  <rmsd>  (10) 
5.31358

>  <sdf_rank>  (10) 
0

$$$$

     RDKit          3D

 43 45  0  0  0  0  0  0  0  0999 V2000
  -22.7268  -19.9315    0.0746 N   0  0  0  0  0  0  0  0  0  0  0  0
  -22.2024  -24.6801    1.5654 C   0  0  0  0  0  0  0  0  0  0  0  0
  -21.8111  -24.4415    0.2755 C   0  0  0  0  0  0  0  0  0  0  0  0
  -18.4747  -21.0214   -1.0038 N   0  0  0  0  0  0  0  0  0  0  0  0
  -21.6135  -23.1399   -0.1384 C   0  0  0  0  0  0  0  0  0  0  0  0
  -16.1292  -22.9623    1.9259 O   0  0  0  0  0  0  0  0  0  0  0  0
  -20.4520  -20.0026   -0.0912 C   0  0  0  0  0  0  0  0  0  0  0  0
  -22.1804  -22.3754    2.0282 C   0  0  0  0  0  0  0  0  0  0  0  0
  -22.3910  -23.6585    2.4715 C   0  0  0  0  0  0  0  0  0  0  0  0
  -14.8395  -21.5617    0.7268 N   0  0  0  0  0  0  0  0  0  0  0  0
  -21.8058  -22.0728    0.7310 C   0  0  0  0  0  0  0  0  0  0  0  0
  -21.6381  -20.6978    0.2481 C   0  0  0  0  0  0  0  0  0  0  0  0
  -20.8908  -18.7665   -0.5059 C   0  0  0  0  0  0  0  0  0  0  0  0
  -15.8916  -22.3470    0.8883 C   0  0  0  0  0  0  0  0  0  0  0  0
  -16.7192  -22.5970   -0.3433 C   0  0  0  0  0  0  0  0  0  0  0  0
  -17.0311  -21.2687   -1.0193 C   0  0  1  0  0  0  0  0  0  0  0  0
  -16.4372  -21.2941   -2.4043 C   0  0  0  0  0  0  0  0  0  0  0  0
  -15.0893  -21.5908   -2.5741 C   0  0  0  0  0  0  0  0  0  0  0  0
  -14.5510  -21.7734   -3.8375 C   0  0  0  0  0  0  0  0  0  0  0  0
  -15.3748  -21.6689   -4.9250 C   0  0  0  0  0  0  0  0  0  0  0  0
  -14.8847  -21.9830   -6.1510 F   0  0  0  0  0  0  0  0  0  0  0  0
  -16.7171  -21.3407   -4.7834 C   0  0  0  0  0  0  0  0  0  0  0  0
  -17.7365  -21.1497   -6.1691 Cl  0  0  0  0  0  0  0  0  0  0  0  0
  -17.2425  -21.1484   -3.5243 C   0  0  0  0  0  0  0  0  0  0  0  0
  -19.0547  -20.4629    0.0650 C   0  0  0  0  0  0  0  0  0  0  0  0
  -18.4627  -20.3032    1.1195 O   0  0  0  0  0  0  0  0  0  0  0  0
  -22.2249  -18.7669   -0.3925 N   0  0  0  0  0  0  0  0  0  0  0  0
  -22.4728  -26.3164    2.0715 Cl  0  0  0  0  0  0  0  0  0  0  0  0
  -22.3616  -21.3723    2.9022 F   0  0  0  0  0  0  0  0  0  0  0  0
  -21.6561  -25.2773   -0.4228 H   0  0  0  0  0  0  0  0  0  0  0  0
  -19.0469  -21.2789   -1.8206 H   0  0  0  0  0  0  0  0  0  0  0  0
  -21.2984  -22.9436   -1.1739 H   0  0  0  0  0  0  0  0  0  0  0  0
  -22.6979  -23.8625    3.5079 H   0  0  0  0  0  0  0  0  0  0  0  0
  -14.6947  -21.0721   -0.1678 H   0  0  0  0  0  0  0  0  0  0  0  0
  -14.1649  -21.4398    1.4956 H   0  0  0  0  0  0  0  0  0  0  0  0
  -20.2645  -17.9356   -0.8628 H   0  0  0  0  0  0  0  0  0  0  0  0
  -16.1589  -23.2400   -1.0380 H   0  0  0  0  0  0  0  0  0  0  0  0
  -17.6581  -23.0957   -0.0609 H   0  0  0  0  0  0  0  0  0  0  0  0
  -16.5786  -20.4260   -0.4759 H   0  0  0  0  0  0  0  0  0  0  0  0
  -14.4399  -21.6820   -1.6909 H   0  0  0  0  0  0  0  0  0  0  0  0
  -13.4817  -21.9982   -3.9640 H   0  0  0  0  0  0  0  0  0  0  0  0
  -18.3025  -20.8788   -3.4070 H   0  0  0  0  0  0  0  0  0  0  0  0
  -22.8124  -17.9573   -0.6379 H   0  0  0  0  0  0  0  0  0  0  0  0
  1 12  2  0
  1 27  1  0
  2  3  2  0
  2  9  1  0
  2 28  1  0
  3  5  1  0
  4 16  1  0
  4 25  1  0
  5 11  2  0
  6 14  2  0
  7 12  1  0
  7 13  2  0
  7 25  1  0
  8  9  2  0
  8 11  1  0
  8 29  1  0
 10 14  1  0
 11 12  1  0
 13 27  1  0
 14 15  1  0
 16 15  1  0
 16 17  1  0
 17 18  2  0
 17 24  1  0
 18 19  1  0
 19 20  2  0
 20 21  1  0
 20 22  1  0
 22 23  1  0
 22 24  2  0
 25 26  2  0
  3 30  1  0
  4 31  1  0
  5 32  1  0
  9 33  1  0
 10 34  1  0
 10 35  1  0
 13 36  1  0
 15 37  1  0
 15 38  1  0
 16 39  1  1
 18 40  1  0
 19 41  1  0
 24 42  1  0
 27 43  1  0
M  END
>  <filename_input>  (11) 
8F8E_XJI_docked.sdf

>  <pdb_id>  (11) 
8F8E_XJI

>  <pose_rank>  (11) 
10

>  <num_atoms_heavy>  (11) 
29

>  <num_torsions>  (11) 
6

>  <pose>  (11) 
[-18.47472178784594, -21.021367357215478, -1.003759372952358, -2.489431237537581, 1.9666580566505951, 0.844032236560739, -1.449912160998827, 2.9365863805664367, -1.0988701685695703, 0.4329111791614515, -1.061444592480245, 3.4355614163751955]

>  <energy>  (11) 
-528.5594745001515

>  <inter_energy>  (11) 
-546.7990275309999

>  <intra_energy>  (11) 
13.819111935973467

>  <rmsd>  (11) 
6.85321

>  <sdf_rank>  (11) 
0

$$$$

     RDKit          3D

 43 45  0  0  0  0  0  0  0  0999 V2000
  -20.0061  -18.0923    1.9481 N   0  0  0  0  0  0  0  0  0  0  0  0
  -16.5442  -20.9376   -0.2646 C   0  0  0  0  0  0  0  0  0  0  0  0
  -16.5355  -20.3672    0.9798 C   0  0  0  0  0  0  0  0  0  0  0  0
  -21.7135  -22.1103    1.0896 N   0  0  0  0  0  0  0  0  0  0  0  0
  -17.7057  -19.8398    1.4869 C   0  0  0  0  0  0  0  0  0  0  0  0
  -19.6220  -24.4269    0.7986 O   0  0  0  0  0  0  0  0  0  0  0  0
  -21.4403  -19.7276    1.2581 C   0  0  0  0  0  0  0  0  0  0  0  0
  -18.8405  -20.4862   -0.4865 C   0  0  0  0  0  0  0  0  0  0  0  0
  -17.6924  -21.0159   -1.0234 C   0  0  0  0  0  0  0  0  0  0  0  0
  -20.8564  -26.1910    0.1452 N   0  0  0  0  0  0  0  0  0  0  0  0
  -18.8869  -19.8785    0.7557 C   0  0  0  0  0  0  0  0  0  0  0  0
  -20.1029  -19.2639    1.2994 C   0  0  0  0  0  0  0  0  0  0  0  0
  -22.1517  -18.7715    1.9453 C   0  0  0  0  0  0  0  0  0  0  0  0
  -20.5682  -24.9003    0.1723 C   0  0  0  0  0  0  0  0  0  0  0  0
  -21.5752  -23.9893   -0.4760 C   0  0  0  0  0  0  0  0  0  0  0  0
  -22.4050  -23.3063    0.6027 C   0  0  1  0  0  0  0  0  0  0  0  0
  -22.6978  -24.3166    1.6821 C   0  0  0  0  0  0  0  0  0  0  0  0
  -23.2047  -23.8944    2.9062 C   0  0  0  0  0  0  0  0  0  0  0  0
  -23.6277  -24.8076    3.8583 C   0  0  0  0  0  0  0  0  0  0  0  0
  -23.5504  -26.1427    3.5693 C   0  0  0  0  0  0  0  0  0  0  0  0
  -24.0905  -27.0338    4.4389 F   0  0  0  0  0  0  0  0  0  0  0  0
  -23.0172  -26.5902    2.3672 C   0  0  0  0  0  0  0  0  0  0  0  0
  -22.8663  -28.2825    2.0369 Cl  0  0  0  0  0  0  0  0  0  0  0  0
  -22.5870  -25.6762    1.4302 C   0  0  0  0  0  0  0  0  0  0  0  0
  -21.9674  -20.9135    0.5478 C   0  0  0  0  0  0  0  0  0  0  0  0
  -22.6295  -20.7848   -0.4686 O   0  0  0  0  0  0  0  0  0  0  0  0
  -21.2763  -17.8343    2.3302 N   0  0  0  0  0  0  0  0  0  0  0  0
  -15.0649  -21.5760   -0.9056 Cl  0  0  0  0  0  0  0  0  0  0  0  0
  -19.9650  -20.5565   -1.2170 F   0  0  0  0  0  0  0  0  0  0  0  0
  -15.6070  -20.3296    1.5684 H   0  0  0  0  0  0  0  0  0  0  0  0
  -21.0277  -22.1911    1.8538 H   0  0  0  0  0  0  0  0  0  0  0  0
  -17.7034  -19.3810    2.4867 H   0  0  0  0  0  0  0  0  0  0  0  0
  -17.6894  -21.4837   -2.0189 H   0  0  0  0  0  0  0  0  0  0  0  0
  -21.6638  -26.5271   -0.3988 H   0  0  0  0  0  0  0  0  0  0  0  0
  -20.2733  -26.8599    0.6682 H   0  0  0  0  0  0  0  0  0  0  0  0
  -23.2341  -18.7761    2.1413 H   0  0  0  0  0  0  0  0  0  0  0  0
  -21.0512  -23.2285   -1.0731 H   0  0  0  0  0  0  0  0  0  0  0  0
  -22.2350  -24.5769   -1.1312 H   0  0  0  0  0  0  0  0  0  0  0  0
  -23.3675  -22.9526    0.2046 H   0  0  0  0  0  0  0  0  0  0  0  0
  -23.2708  -22.8178    3.1221 H   0  0  0  0  0  0  0  0  0  0  0  0
  -24.0183  -24.4657    4.8281 H   0  0  0  0  0  0  0  0  0  0  0  0
  -22.1550  -26.0252    0.4807 H   0  0  0  0  0  0  0  0  0  0  0  0
  -21.5454  -16.9969    2.8662 H   0  0  0  0  0  0  0  0  0  0  0  0
  1 12  2  0
  1 27  1  0
  2  3  2  0
  2  9  1  0
  2 28  1  0
  3  5  1  0
  4 16  1  0
  4 25  1  0
  5 11  2  0
  6 14  2  0
  7 12  1  0
  7 13  2  0
  7 25  1  0
  8  9  2  0
  8 11  1  0
  8 29  1  0
 10 14  1  0
 11 12  1  0
 13 27  1  0
 14 15  1  0
 16 15  1  0
 16 17  1  0
 17 18  2  0
 17 24  1  0
 18 19  1  0
 19 20  2  0
 20 21  1  0
 20 22  1  0
 22 23  1  0
 22 24  2  0
 25 26  2  0
  3 30  1  0
  4 31  1  0
  5 32  1  0
  9 33  1  0
 10 34  1  0
 10 35  1  0
 13 36  1  0
 15 37  1  0
 15 38  1  0
 16 39  1  6
 18 40  1  0
 19 41  1  0
 24 42  1  0
 27 43  1  0
M  END
>  <filename_input>  (12) 
8F8E_XJI_docked.sdf

>  <pdb_id>  (12) 
8F8E_XJI

>  <pose_rank>  (12) 
11

>  <num_atoms_heavy>  (12) 
29

>  <num_torsions>  (12) 
6

>  <pose>  (12) 
[-21.713532121820034, -22.110296989865414, 1.089602482279986, -0.1581431815883465, 0.24804977254685712, -0.7826770266069858, -1.8048697658953605, -4.525126549280276, -0.9511244252609731, -1.99514591255185, 8.731764738480075, -0.1915896353832437]

>  <energy>  (12) 
-479.3756029959621

>  <inter_energy>  (12) 
-653.9258486562816

>  <intra_energy>  (12) 
186.03802997377585

>  <rmsd>  (12) 
5.2147

>  <sdf_rank>  (12) 
0

$$$$

     RDKit          3D

 43 45  0  0  0  0  0  0  0  0999 V2000
  -18.9070  -22.4883   -0.3944 N   0  0  0  0  0  0  0  0  0  0  0  0
  -22.4871  -24.9729    2.1174 C   0  0  0  0  0  0  0  0  0  0  0  0
  -21.8083  -25.3580    0.9928 C   0  0  0  0  0  0  0  0  0  0  0  0
  -21.7348  -18.8002   -0.1076 N   0  0  0  0  0  0  0  0  0  0  0  0
  -21.0321  -24.4327    0.3249 C   0  0  0  0  0  0  0  0  0  0  0  0
  -26.3417  -18.0103   -0.4564 O   0  0  0  0  0  0  0  0  0  0  0  0
  -20.4734  -20.8290   -0.3780 C   0  0  0  0  0  0  0  0  0  0  0  0
  -21.6219  -22.7953    1.9283 C   0  0  0  0  0  0  0  0  0  0  0  0
  -22.4075  -23.6895    2.6142 C   0  0  0  0  0  0  0  0  0  0  0  0
  -24.9900  -17.5318   -2.1904 N   0  0  0  0  0  0  0  0  0  0  0  0
  -20.9308  -23.1217    0.7749 C   0  0  0  0  0  0  0  0  0  0  0  0
  -20.1395  -22.1478    0.0151 C   0  0  0  0  0  0  0  0  0  0  0  0
  -19.3529  -20.3777   -1.0361 C   0  0  0  0  0  0  0  0  0  0  0  0
  -25.2803  -18.1545   -1.0600 C   0  0  0  0  0  0  0  0  0  0  0  0
  -24.1583  -18.9394   -0.4362 C   0  0  0  0  0  0  0  0  0  0  0  0
  -22.9698  -18.0178   -0.1981 C   0  0  1  0  0  0  0  0  0  0  0  0
  -23.2531  -17.1915    1.0301 C   0  0  0  0  0  0  0  0  0  0  0  0
  -24.2048  -16.1790    0.9789 C   0  0  0  0  0  0  0  0  0  0  0  0
  -24.5972  -15.5078    2.1255 C   0  0  0  0  0  0  0  0  0  0  0  0
  -24.0388  -15.8672    3.3218 C   0  0  0  0  0  0  0  0  0  0  0  0
  -24.5192  -15.3108    4.4628 F   0  0  0  0  0  0  0  0  0  0  0  0
  -23.0622  -16.8523    3.3943 C   0  0  0  0  0  0  0  0  0  0  0  0
  -22.3173  -17.2562    4.9035 Cl  0  0  0  0  0  0  0  0  0  0  0  0
  -22.6681  -17.5070    2.2478 C   0  0  0  0  0  0  0  0  0  0  0  0
  -21.7687  -20.1337   -0.2120 C   0  0  0  0  0  0  0  0  0  0  0  0
  -22.8141  -20.7622   -0.2049 O   0  0  0  0  0  0  0  0  0  0  0  0
  -18.4627  -21.3779   -1.0236 N   0  0  0  0  0  0  0  0  0  0  0  0
  -23.4802  -26.1341    2.9373 Cl  0  0  0  0  0  0  0  0  0  0  0  0
  -21.5372  -21.5421    2.4030 F   0  0  0  0  0  0  0  0  0  0  0  0
  -21.8805  -26.3925    0.6259 H   0  0  0  0  0  0  0  0  0  0  0  0
  -20.8347  -18.3208    0.0372 H   0  0  0  0  0  0  0  0  0  0  0  0
  -20.4843  -24.7381   -0.5788 H   0  0  0  0  0  0  0  0  0  0  0  0
  -22.9512  -23.3932    3.5234 H   0  0  0  0  0  0  0  0  0  0  0  0
  -24.0823  -17.6943   -2.6494 H   0  0  0  0  0  0  0  0  0  0  0  0
  -25.6715  -16.8845   -2.6115 H   0  0  0  0  0  0  0  0  0  0  0  0
  -19.2144  -19.3839   -1.4869 H   0  0  0  0  0  0  0  0  0  0  0  0
  -24.4939  -19.3612    0.5227 H   0  0  0  0  0  0  0  0  0  0  0  0
  -23.8614  -19.7564   -1.1103 H   0  0  0  0  0  0  0  0  0  0  0  0
  -22.8233  -17.3262   -1.0409 H   0  0  0  0  0  0  0  0  0  0  0  0
  -24.6534  -15.9066    0.0121 H   0  0  0  0  0  0  0  0  0  0  0  0
  -25.3434  -14.7012    2.0751 H   0  0  0  0  0  0  0  0  0  0  0  0
  -21.8883  -18.2811    2.2980 H   0  0  0  0  0  0  0  0  0  0  0  0
  -17.5289  -21.3076   -1.4524 H   0  0  0  0  0  0  0  0  0  0  0  0
  1 12  2  0
  1 27  1  0
  2  3  2  0
  2  9  1  0
  2 28  1  0
  3  5  1  0
  4 16  1  0
  4 25  1  0
  5 11  2  0
  6 14  2  0
  7 12  1  0
  7 13  2  0
  7 25  1  0
  8  9  2  0
  8 11  1  0
  8 29  1  0
 10 14  1  0
 11 12  1  0
 13 27  1  0
 14 15  1  0
 16 15  1  0
 16 17  1  0
 17 18  2  0
 17 24  1  0
 18 19  1  0
 19 20  2  0
 20 21  1  0
 20 22  1  0
 22 23  1  0
 22 24  2  0
 25 26  2  0
  3 30  1  0
  4 31  1  0
  5 32  1  0
  9 33  1  0
 10 34  1  0
 10 35  1  0
 13 36  1  0
 15 37  1  0
 15 38  1  0
 16 39  1  6
 18 40  1  0
 19 41  1  0
 24 42  1  0
 27 43  1  0
M  END
>  <filename_input>  (13) 
8F8E_XJI_docked.sdf

>  <pdb_id>  (13) 
8F8E_XJI

>  <pose_rank>  (13) 
12

>  <num_atoms_heavy>  (13) 
29

>  <num_torsions>  (13) 
6

>  <pose>  (13) 
[-21.734806421341876, -18.80018669426358, -0.1076329949496771, -2.2756490668775538, -1.3513849706536536, -1.8972467698521454, -0.4671549889134706, 0.231286996426523, 3.6902364892069426, 0.11635577493747291, -1.7834122119025502, -0.9985160221216304]

>  <energy>  (13) 
-575.2663855372574

>  <inter_energy>  (13) 
-683.4057810369848

>  <intra_energy>  (13) 
102.15460431462772

>  <rmsd>  (13) 
7.54462

>  <sdf_rank>  (13) 
0

$$$$

     RDKit          3D

 43 45  0  0  0  0  0  0  0  0999 V2000
  -22.0408  -19.4340    2.7676 N   0  0  0  0  0  0  0  0  0  0  0  0
  -19.7535  -21.7222   -1.0507 C   0  0  0  0  0  0  0  0  0  0  0  0
  -21.1010  -21.9510   -0.9741 C   0  0  0  0  0  0  0  0  0  0  0  0
  -24.7698  -17.6598   -0.5278 N   0  0  0  0  0  0  0  0  0  0  0  0
  -21.8773  -21.1388   -0.1725 C   0  0  0  0  0  0  0  0  0  0  0  0
  -24.8711  -17.9917   -4.1230 O   0  0  0  0  0  0  0  0  0  0  0  0
  -23.1313  -18.3126    1.1062 C   0  0  0  0  0  0  0  0  0  0  0  0
  -19.9503  -19.9006    0.4220 C   0  0  0  0  0  0  0  0  0  0  0  0
  -19.1478  -20.6931   -0.3621 C   0  0  0  0  0  0  0  0  0  0  0  0
  -26.9511  -18.8231   -4.3363 N   0  0  0  0  0  0  0  0  0  0  0  0
  -21.3134  -20.0976    0.5551 C   0  0  0  0  0  0  0  0  0  0  0  0
  -22.1557  -19.2837    1.4383 C   0  0  0  0  0  0  0  0  0  0  0  0
  -23.6216  -17.8954    2.3219 C   0  0  0  0  0  0  0  0  0  0  0  0
  -26.0237  -18.1152   -3.7130 C   0  0  0  0  0  0  0  0  0  0  0  0
  -26.4011  -17.5911   -2.3539 C   0  0  0  0  0  0  0  0  0  0  0  0
  -25.1913  -16.9190   -1.7190 C   0  0  1  0  0  0  0  0  0  0  0  0
  -25.5431  -15.4798   -1.4425 C   0  0  0  0  0  0  0  0  0  0  0  0
  -25.2507  -14.9216   -0.2030 C   0  0  0  0  0  0  0  0  0  0  0  0
  -25.4193  -13.5661    0.0286 C   0  0  0  0  0  0  0  0  0  0  0  0
  -25.8699  -12.7753   -0.9930 C   0  0  0  0  0  0  0  0  0  0  0  0
  -25.9040  -11.4303   -0.8145 F   0  0  0  0  0  0  0  0  0  0  0  0
  -26.2003  -13.3144   -2.2299 C   0  0  0  0  0  0  0  0  0  0  0  0
  -26.8285  -12.3152   -3.4959 Cl  0  0  0  0  0  0  0  0  0  0  0  0
  -26.0417  -14.6654   -2.4488 C   0  0  0  0  0  0  0  0  0  0  0  0
  -23.4705  -17.7899   -0.2356 C   0  0  0  0  0  0  0  0  0  0  0  0
  -22.5908  -17.4667   -1.0164 O   0  0  0  0  0  0  0  0  0  0  0  0
  -22.9573  -18.5747    3.2653 N   0  0  0  0  0  0  0  0  0  0  0  0
  -18.7806  -22.7620   -2.0403 Cl  0  0  0  0  0  0  0  0  0  0  0  0
  -19.3709  -18.8952    1.0977 F   0  0  0  0  0  0  0  0  0  0  0  0
  -21.5596  -22.7722   -1.5445 H   0  0  0  0  0  0  0  0  0  0  0  0
  -25.4779  -18.0832    0.0888 H   0  0  0  0  0  0  0  0  0  0  0  0
  -22.9606  -21.3186   -0.1085 H   0  0  0  0  0  0  0  0  0  0  0  0
  -18.0651  -20.5137   -0.4374 H   0  0  0  0  0  0  0  0  0  0  0  0
  -27.9004  -18.8888   -3.9422 H   0  0  0  0  0  0  0  0  0  0  0  0
  -26.7239  -19.3085   -5.2159 H   0  0  0  0  0  0  0  0  0  0  0  0
  -24.4098  -17.1461    2.4875 H   0  0  0  0  0  0  0  0  0  0  0  0
  -27.2163  -16.8597   -2.4557 H   0  0  0  0  0  0  0  0  0  0  0  0
  -26.7353  -18.4241   -1.7180 H   0  0  0  0  0  0  0  0  0  0  0  0
  -24.3253  -16.9280   -2.3973 H   0  0  0  0  0  0  0  0  0  0  0  0
  -24.8796  -15.5668    0.6070 H   0  0  0  0  0  0  0  0  0  0  0  0
  -25.1952  -13.1339    1.0149 H   0  0  0  0  0  0  0  0  0  0  0  0
  -26.3109  -15.0990   -3.4232 H   0  0  0  0  0  0  0  0  0  0  0  0
  -23.1284  -18.4538    4.2738 H   0  0  0  0  0  0  0  0  0  0  0  0
  1 12  2  0
  1 27  1  0
  2  3  2  0
  2  9  1  0
  2 28  1  0
  3  5  1  0
  4 16  1  0
  4 25  1  0
  5 11  2  0
  6 14  2  0
  7 12  1  0
  7 13  2  0
  7 25  1  0
  8  9  2  0
  8 11  1  0
  8 29  1  0
 10 14  1  0
 11 12  1  0
 13 27  1  0
 14 15  1  0
 16 15  1  0
 16 17  1  0
 17 18  2  0
 17 24  1  0
 18 19  1  0
 19 20  2  0
 20 21  1  0
 20 22  1  0
 22 23  1  0
 22 24  2  0
 25 26  2  0
  3 30  1  0
  4 31  1  0
  5 32  1  0
  9 33  1  0
 10 34  1  0
 10 35  1  0
 13 36  1  0
 15 37  1  0
 15 38  1  0
 16 39  1  6
 18 40  1  0
 19 41  1  0
 24 42  1  0
 27 43  1  0
M  END
>  <filename_input>  (14) 
8F8E_XJI_docked.sdf

>  <pdb_id>  (14) 
8F8E_XJI

>  <pose_rank>  (14) 
13

>  <num_atoms_heavy>  (14) 
29

>  <num_torsions>  (14) 
6

>  <pose>  (14) 
[-24.769755702072466, -17.659805990729346, -0.5277544563364841, -1.1536220101666916, 0.33208669406571134, 3.504259200950836, -7.027092605301322, -3.347118957368468, -12.648856236380325, -2.5917348814118886, -1.0375340723333972, -5.2225232770754815]

>  <energy>  (14) 
-555.9916465411972

>  <inter_energy>  (14) 
-561.9377898180651

>  <intra_energy>  (14) 
8.804664528663938

>  <rmsd>  (14) 
8.33189

>  <sdf_rank>  (14) 
0

$$$$

     RDKit          3D

 43 45  0  0  0  0  0  0  0  0999 V2000
  -23.9684  -16.7903    2.5411 N   0  0  0  0  0  0  0  0  0  0  0  0
  -25.6381  -16.7172   -2.2179 C   0  0  0  0  0  0  0  0  0  0  0  0
  -26.2259  -17.5447   -1.2994 C   0  0  0  0  0  0  0  0  0  0  0  0
  -21.2238  -20.3455    1.2764 N   0  0  0  0  0  0  0  0  0  0  0  0
  -25.5851  -17.7831   -0.1005 C   0  0  0  0  0  0  0  0  0  0  0  0
  -19.5590  -19.6034   -1.2635 O   0  0  0  0  0  0  0  0  0  0  0  0
  -22.6999  -18.5003    1.7202 C   0  0  0  0  0  0  0  0  0  0  0  0
  -23.8213  -16.3548   -0.7708 C   0  0  0  0  0  0  0  0  0  0  0  0
  -24.4294  -16.1002   -1.9760 C   0  0  0  0  0  0  0  0  0  0  0  0
  -19.1503  -21.5405   -2.3328 N   0  0  0  0  0  0  0  0  0  0  0  0
  -24.3571  -17.1986    0.1860 C   0  0  0  0  0  0  0  0  0  0  0  0
  -23.6758  -17.5114    1.4470 C   0  0  0  0  0  0  0  0  0  0  0  0
  -22.3985  -18.3204    3.0503 C   0  0  0  0  0  0  0  0  0  0  0  0
  -19.8861  -20.7480   -1.5711 C   0  0  0  0  0  0  0  0  0  0  0  0
  -21.0952  -21.3826   -0.9391 C   0  0  0  0  0  0  0  0  0  0  0  0
  -20.8484  -21.5624    0.5527 C   0  0  1  0  0  0  0  0  0  0  0  0
  -19.4080  -21.9611    0.7472 C   0  0  0  0  0  0  0  0  0  0  0  0
  -19.0715  -23.3052    0.8635 C   0  0  0  0  0  0  0  0  0  0  0  0
  -17.7472  -23.7114    0.8875 C   0  0  0  0  0  0  0  0  0  0  0  0
  -16.7663  -22.7633    0.7816 C   0  0  0  0  0  0  0  0  0  0  0  0
  -15.4755  -23.1660    0.6647 F   0  0  0  0  0  0  0  0  0  0  0  0
  -17.0764  -21.4118    0.6978 C   0  0  0  0  0  0  0  0  0  0  0  0
  -15.8270  -20.2160    0.6270 Cl  0  0  0  0  0  0  0  0  0  0  0  0
  -18.3956  -21.0146    0.6870 C   0  0  0  0  0  0  0  0  0  0  0  0
  -22.1974  -19.5540    0.8114 C   0  0  0  0  0  0  0  0  0  0  0  0
  -22.6832  -19.7006   -0.2978 O   0  0  0  0  0  0  0  0  0  0  0  0
  -23.1619  -17.3127    3.4914 N   0  0  0  0  0  0  0  0  0  0  0  0
  -26.4370  -16.4419   -3.7321 Cl  0  0  0  0  0  0  0  0  0  0  0  0
  -22.6433  -15.7594   -0.5245 F   0  0  0  0  0  0  0  0  0  0  0  0
  -27.1973  -18.0140   -1.5142 H   0  0  0  0  0  0  0  0  0  0  0  0
  -20.7354  -20.0975    2.1487 H   0  0  0  0  0  0  0  0  0  0  0  0
  -26.0541  -18.4468    0.6407 H   0  0  0  0  0  0  0  0  0  0  0  0
  -23.9701  -15.4308   -2.7183 H   0  0  0  0  0  0  0  0  0  0  0  0
  -19.4789  -22.4909   -2.5558 H   0  0  0  0  0  0  0  0  0  0  0  0
  -18.2487  -21.2072   -2.7029 H   0  0  0  0  0  0  0  0  0  0  0  0
  -21.6690  -18.8953    3.6396 H   0  0  0  0  0  0  0  0  0  0  0  0
  -21.9715  -20.7353   -1.0910 H   0  0  0  0  0  0  0  0  0  0  0  0
  -21.2809  -22.3630   -1.4022 H   0  0  0  0  0  0  0  0  0  0  0  0
  -21.4770  -22.3629    0.9698 H   0  0  0  0  0  0  0  0  0  0  0  0
  -19.8698  -24.0584    0.9378 H   0  0  0  0  0  0  0  0  0  0  0  0
  -17.4891  -24.7758    0.9898 H   0  0  0  0  0  0  0  0  0  0  0  0
  -18.6465  -19.9451    0.6306 H   0  0  0  0  0  0  0  0  0  0  0  0
  -23.1369  -16.9686    4.4619 H   0  0  0  0  0  0  0  0  0  0  0  0
  1 12  2  0
  1 27  1  0
  2  3  2  0
  2  9  1  0
  2 28  1  0
  3  5  1  0
  4 16  1  0
  4 25  1  0
  5 11  2  0
  6 14  2  0
  7 12  1  0
  7 13  2  0
  7 25  1  0
  8  9  2  0
  8 11  1  0
  8 29  1  0
 10 14  1  0
 11 12  1  0
 13 27  1  0
 14 15  1  0
 16 15  1  0
 16 17  1  0
 17 18  2  0
 17 24  1  0
 18 19  1  0
 19 20  2  0
 20 21  1  0
 20 22  1  0
 22 23  1  0
 22 24  2  0
 25 26  2  0
  3 30  1  0
  4 31  1  0
  5 32  1  0
  9 33  1  0
 10 34  1  0
 10 35  1  0
 13 36  1  0
 15 37  1  0
 15 38  1  0
 16 39  1  1
 18 40  1  0
 19 41  1  0
 24 42  1  0
 27 43  1  0
M  END
>  <filename_input>  (15) 
8F8E_XJI_docked.sdf

>  <pdb_id>  (15) 
8F8E_XJI

>  <pose_rank>  (15) 
14

>  <num_atoms_heavy>  (15) 
29

>  <num_torsions>  (15) 
6

>  <pose>  (15) 
[-21.22382128837062, -20.34550264117229, 1.2764453592848832, 1.7308485127668984, -5.864604502668435, 0.9331675580731019, -12.595609936740727, -0.45778593784809307, -8.3385600482789, -6.57824494498096, 2.480106183271221, 6.176794385768509]

>  <energy>  (15) 
-499.32312659095567

>  <inter_energy>  (15) 
-652.8132953214109

>  <intra_energy>  (15) 
153.85726898197254

>  <rmsd>  (15) 
3.33096

>  <sdf_rank>  (15) 
0

$$$$

     RDKit          3D

 43 45  0  0  0  0  0  0  0  0999 V2000
  -22.0670  -22.5105    1.4349 N   0  0  0  0  0  0  0  0  0  0  0  0
  -23.0773  -17.6156    1.5052 C   0  0  0  0  0  0  0  0  0  0  0  0
  -22.4081  -18.1855    2.5547 C   0  0  0  0  0  0  0  0  0  0  0  0
  -18.5080  -21.3826   -1.2061 N   0  0  0  0  0  0  0  0  0  0  0  0
  -21.8310  -19.4283    2.3901 C   0  0  0  0  0  0  0  0  0  0  0  0
  -15.3918  -22.4059   -1.2821 O   0  0  0  0  0  0  0  0  0  0  0  0
  -20.0677  -21.8354    0.5666 C   0  0  0  0  0  0  0  0  0  0  0  0
  -22.5897  -19.4728    0.1490 C   0  0  0  0  0  0  0  0  0  0  0  0
  -23.1802  -18.2394    0.2803 C   0  0  0  0  0  0  0  0  0  0  0  0
  -15.9507  -21.5030    0.7016 N   0  0  0  0  0  0  0  0  0  0  0  0
  -21.9197  -20.1068    1.1804 C   0  0  0  0  0  0  0  0  0  0  0  0
  -21.3407  -21.4484    1.0512 C   0  0  0  0  0  0  0  0  0  0  0  0
  -20.0557  -23.2043    0.7011 C   0  0  0  0  0  0  0  0  0  0  0  0
  -15.8985  -21.5022   -0.6201 C   0  0  0  0  0  0  0  0  0  0  0  0
  -16.3463  -20.2335   -1.2938 C   0  0  0  0  0  0  0  0  0  0  0  0
  -17.6725  -20.4791   -2.0006 C   0  0  1  0  0  0  0  0  0  0  0  0
  -17.3793  -20.9903   -3.3878 C   0  0  0  0  0  0  0  0  0  0  0  0
  -18.3741  -21.6393   -4.1109 C   0  0  0  0  0  0  0  0  0  0  0  0
  -18.1844  -21.9816   -5.4399 C   0  0  0  0  0  0  0  0  0  0  0  0
  -16.9980  -21.6579   -6.0396 C   0  0  0  0  0  0  0  0  0  0  0  0
  -16.8601  -21.8650   -7.3738 F   0  0  0  0  0  0  0  0  0  0  0  0
  -15.9766  -21.0396   -5.3296 C   0  0  0  0  0  0  0  0  0  0  0  0
  -14.4568  -20.6906   -6.0807 Cl  0  0  0  0  0  0  0  0  0  0  0  0
  -16.1682  -20.7134   -4.0048 C   0  0  0  0  0  0  0  0  0  0  0  0
  -19.0297  -20.9754   -0.0432 C   0  0  0  0  0  0  0  0  0  0  0  0
  -18.6996  -19.9287    0.4890 O   0  0  0  0  0  0  0  0  0  0  0  0
  -21.2424  -23.5575    1.2110 N   0  0  0  0  0  0  0  0  0  0  0  0
  -23.8211  -16.0650    1.7268 Cl  0  0  0  0  0  0  0  0  0  0  0  0
  -22.6840  -20.0899   -1.0398 F   0  0  0  0  0  0  0  0  0  0  0  0
  -22.3312  -17.6592    3.5176 H   0  0  0  0  0  0  0  0  0  0  0  0
  -18.6950  -22.3372   -1.5447 H   0  0  0  0  0  0  0  0  0  0  0  0
  -21.2918  -19.8897    3.2305 H   0  0  0  0  0  0  0  0  0  0  0  0
  -23.7136  -17.7684   -0.5585 H   0  0  0  0  0  0  0  0  0  0  0  0
  -16.3891  -20.7156    1.2002 H   0  0  0  0  0  0  0  0  0  0  0  0
  -15.5529  -22.2911    1.2323 H   0  0  0  0  0  0  0  0  0  0  0  0
  -19.2285  -23.8805    0.4396 H   0  0  0  0  0  0  0  0  0  0  0  0
  -16.4728  -19.4423   -0.5401 H   0  0  0  0  0  0  0  0  0  0  0  0
  -15.5901  -19.9201   -2.0286 H   0  0  0  0  0  0  0  0  0  0  0  0
  -18.2516  -19.5493   -2.1015 H   0  0  0  0  0  0  0  0  0  0  0  0
  -19.3272  -21.8848   -3.6197 H   0  0  0  0  0  0  0  0  0  0  0  0
  -18.9725  -22.5037   -6.0022 H   0  0  0  0  0  0  0  0  0  0  0  0
  -15.3592  -20.2324   -3.4352 H   0  0  0  0  0  0  0  0  0  0  0  0
  -21.5019  -24.5335    1.4131 H   0  0  0  0  0  0  0  0  0  0  0  0
  1 12  2  0
  1 27  1  0
  2  3  2  0
  2  9  1  0
  2 28  1  0
  3  5  1  0
  4 16  1  0
  4 25  1  0
  5 11  2  0
  6 14  2  0
  7 12  1  0
  7 13  2  0
  7 25  1  0
  8  9  2  0
  8 11  1  0
  8 29  1  0
 10 14  1  0
 11 12  1  0
 13 27  1  0
 14 15  1  0
 16 15  1  0
 16 17  1  0
 17 18  2  0
 17 24  1  0
 18 19  1  0
 19 20  2  0
 20 21  1  0
 20 22  1  0
 22 23  1  0
 22 24  2  0
 25 26  2  0
  3 30  1  0
  4 31  1  0
  5 32  1  0
  9 33  1  0
 10 34  1  0
 10 35  1  0
 13 36  1  0
 15 37  1  0
 15 38  1  0
 16 39  1  6
 18 40  1  0
 19 41  1  0
 24 42  1  0
 27 43  1  0
M  END
>  <filename_input>  (16) 
8F8E_XJI_docked.sdf

>  <pdb_id>  (16) 
8F8E_XJI

>  <pose_rank>  (16) 
15

>  <num_atoms_heavy>  (16) 
29

>  <num_torsions>  (16) 
6

>  <pose>  (16) 
[-18.50796152875003, -21.38256266842786, -1.2061206843278427, 2.0724445706380115, -0.3934374185727187, -0.5992653323023647, -5.3903134400294155, -3.743871023071981, 4.915754292732181, 4.202435187568053, -4.670060631268168, 2.383191941422099]

>  <energy>  (16) 
-457.63752950058415

>  <inter_energy>  (16) 
-504.06899837328297

>  <intra_energy>  (16) 
52.45890489718956

>  <rmsd>  (16) 
6.16851

>  <sdf_rank>  (16) 
0

$$$$

     RDKit          3D

 43 45  0  0  0  0  0  0  0  0999 V2000
  -21.9207  -22.4711    1.5084 N   0  0  0  0  0  0  0  0  0  0  0  0
  -22.1421  -17.5771    0.2919 C   0  0  0  0  0  0  0  0  0  0  0  0
  -21.6771  -18.3227   -0.7578 C   0  0  0  0  0  0  0  0  0  0  0  0
  -17.7354  -21.1312    0.5007 N   0  0  0  0  0  0  0  0  0  0  0  0
  -21.3464  -19.6462   -0.5492 C   0  0  0  0  0  0  0  0  0  0  0  0
  -14.4747  -20.2815    2.3182 O   0  0  0  0  0  0  0  0  0  0  0  0
  -19.8546  -22.2651    0.5619 C   0  0  0  0  0  0  0  0  0  0  0  0
  -21.9720  -19.4341    1.7231 C   0  0  0  0  0  0  0  0  0  0  0  0
  -22.3055  -18.1126    1.5515 C   0  0  0  0  0  0  0  0  0  0  0  0
  -16.5384  -19.5417    2.8249 N   0  0  0  0  0  0  0  0  0  0  0  0
  -21.4771  -20.2300    0.7052 C   0  0  0  0  0  0  0  0  0  0  0  0
  -21.0690  -21.6244    0.9080 C   0  0  0  0  0  0  0  0  0  0  0  0
  -20.0121  -23.5555    1.0119 C   0  0  0  0  0  0  0  0  0  0  0  0
  -15.5821  -19.8737    1.9733 C   0  0  0  0  0  0  0  0  0  0  0  0
  -15.8544  -19.5622    0.5266 C   0  0  0  0  0  0  0  0  0  0  0  0
  -16.4676  -20.7833   -0.1452 C   0  0  1  0  0  0  0  0  0  0  0  0
  -15.4510  -21.8956   -0.1192 C   0  0  0  0  0  0  0  0  0  0  0  0
  -14.1420  -21.6464   -0.5166 C   0  0  0  0  0  0  0  0  0  0  0  0
  -13.1522  -22.6027   -0.3581 C   0  0  0  0  0  0  0  0  0  0  0  0
  -13.4816  -23.8023    0.2117 C   0  0  0  0  0  0  0  0  0  0  0  0
  -12.4920  -24.6866    0.4959 F   0  0  0  0  0  0  0  0  0  0  0  0
  -14.7885  -24.0875    0.5863 C   0  0  0  0  0  0  0  0  0  0  0  0
  -15.2066  -25.6310    1.2486 Cl  0  0  0  0  0  0  0  0  0  0  0  0
  -15.7699  -23.1359    0.4141 C   0  0  0  0  0  0  0  0  0  0  0  0
  -18.7191  -21.7041   -0.2026 C   0  0  0  0  0  0  0  0  0  0  0  0
  -18.6828  -21.7973   -1.4183 O   0  0  0  0  0  0  0  0  0  0  0  0
  -21.2326  -23.6332    1.5572 N   0  0  0  0  0  0  0  0  0  0  0  0
  -22.5321  -15.9082    0.0282 Cl  0  0  0  0  0  0  0  0  0  0  0  0
  -22.1268  -19.9663    2.9462 F   0  0  0  0  0  0  0  0  0  0  0  0
  -21.5684  -17.8723   -1.7555 H   0  0  0  0  0  0  0  0  0  0  0  0
  -17.8706  -20.9336    1.5025 H   0  0  0  0  0  0  0  0  0  0  0  0
  -20.9730  -20.2492   -1.3900 H   0  0  0  0  0  0  0  0  0  0  0  0
  -22.6875  -17.5060    2.3859 H   0  0  0  0  0  0  0  0  0  0  0  0
  -17.4467  -19.2061    2.4739 H   0  0  0  0  0  0  0  0  0  0  0  0
  -16.3746  -19.6188    3.8388 H   0  0  0  0  0  0  0  0  0  0  0  0
  -19.2754  -24.3690    0.9378 H   0  0  0  0  0  0  0  0  0  0  0  0
  -16.5534  -18.7156    0.4584 H   0  0  0  0  0  0  0  0  0  0  0  0
  -14.9124  -19.2992    0.0231 H   0  0  0  0  0  0  0  0  0  0  0  0
  -16.7154  -20.5802   -1.1975 H   0  0  0  0  0  0  0  0  0  0  0  0
  -13.8882  -20.6741   -0.9640 H   0  0  0  0  0  0  0  0  0  0  0  0
  -12.1210  -22.4015   -0.6841 H   0  0  0  0  0  0  0  0  0  0  0  0
  -16.8082  -23.3600    0.7000 H   0  0  0  0  0  0  0  0  0  0  0  0
  -21.6107  -24.4959    1.9739 H   0  0  0  0  0  0  0  0  0  0  0  0
  1 12  2  0
  1 27  1  0
  2  3  2  0
  2  9  1  0
  2 28  1  0
  3  5  1  0
  4 16  1  0
  4 25  1  0
  5 11  2  0
  6 14  2  0
  7 12  1  0
  7 13  2  0
  7 25  1  0
  8  9  2  0
  8 11  1  0
  8 29  1  0
 10 14  1  0
 11 12  1  0
 13 27  1  0
 14 15  1  0
 16 15  1  0
 16 17  1  0
 17 18  2  0
 17 24  1  0
 18 19  1  0
 19 20  2  0
 20 21  1  0
 20 22  1  0
 22 23  1  0
 22 24  2  0
 25 26  2  0
  3 30  1  0
  4 31  1  0
  5 32  1  0
  9 33  1  0
 10 34  1  0
 10 35  1  0
 13 36  1  0
 15 37  1  0
 15 38  1  0
 16 39  1  6
 18 40  1  0
 19 41  1  0
 24 42  1  0
 27 43  1  0
M  END
>  <filename_input>  (17) 
8F8E_XJI_docked.sdf

>  <pdb_id>  (17) 
8F8E_XJI

>  <pose_rank>  (17) 
16

>  <num_atoms_heavy>  (17) 
29

>  <num_torsions>  (17) 
6

>  <pose>  (17) 
[-17.735435895792673, -21.1311855650701, 0.500730910742091, -0.7720601381019045, 0.6310713809710311, -4.822634012819763, -7.791946404281848, 5.07570736262123, 0.032171228600953075, -5.746446262690828, 14.596422063234167, 2.666782050453781]

>  <energy>  (17) 
-456.18763109363476

>  <inter_energy>  (17) 
-491.8348795466386

>  <intra_energy>  (17) 
46.64768273842124

>  <rmsd>  (17) 
5.76452

>  <sdf_rank>  (17) 
0

$$$$

     RDKit          3D

 43 45  0  0  0  0  0  0  0  0999 V2000
  -25.5590  -15.6219   -3.7282 N   0  0  0  0  0  0  0  0  0  0  0  0
  -24.9290  -11.8106   -0.5106 C   0  0  0  0  0  0  0  0  0  0  0  0
  -25.4616  -12.8490    0.2051 C   0  0  0  0  0  0  0  0  0  0  0  0
  -24.6156  -16.8874    0.3001 N   0  0  0  0  0  0  0  0  0  0  0  0
  -25.6409  -14.0702   -0.4123 C   0  0  0  0  0  0  0  0  0  0  0  0
  -21.3083  -18.1547    2.7866 O   0  0  0  0  0  0  0  0  0  0  0  0
  -25.7865  -16.8186   -1.7986 C   0  0  0  0  0  0  0  0  0  0  0  0
  -24.7376  -13.1813   -2.4107 C   0  0  0  0  0  0  0  0  0  0  0  0
  -24.5505  -11.9512   -1.8286 C   0  0  0  0  0  0  0  0  0  0  0  0
  -23.1763  -19.1421    2.0132 N   0  0  0  0  0  0  0  0  0  0  0  0
  -25.2910  -14.2600   -1.7438 C   0  0  0  0  0  0  0  0  0  0  0  0
  -25.5410  -15.5543   -2.3874 C   0  0  0  0  0  0  0  0  0  0  0  0
  -25.9785  -17.6597   -2.8700 C   0  0  0  0  0  0  0  0  0  0  0  0
  -22.4471  -18.0845    2.3285 C   0  0  0  0  0  0  0  0  0  0  0  0
  -23.1523  -16.7570    2.2603 C   0  0  0  0  0  0  0  0  0  0  0  0
  -24.5757  -16.9674    1.7622 C   0  0  1  0  0  0  0  0  0  0  0  0
  -25.4675  -15.9636    2.4468 C   0  0  0  0  0  0  0  0  0  0  0  0
  -26.7514  -15.7356    1.9637 C   0  0  0  0  0  0  0  0  0  0  0  0
  -27.6457  -14.9379    2.6589 C   0  0  0  0  0  0  0  0  0  0  0  0
  -27.2481  -14.3828    3.8446 C   0  0  0  0  0  0  0  0  0  0  0  0
  -28.1619  -13.7174    4.5958 F   0  0  0  0  0  0  0  0  0  0  0  0
  -25.9604  -14.5686    4.3314 C   0  0  0  0  0  0  0  0  0  0  0  0
  -25.4477  -13.8111    5.8008 Cl  0  0  0  0  0  0  0  0  0  0  0  0
  -25.0726  -15.3531    3.6281 C   0  0  0  0  0  0  0  0  0  0  0  0
  -25.7415  -17.1746   -0.3634 C   0  0  0  0  0  0  0  0  0  0  0  0
  -26.7096  -17.6781    0.1819 O   0  0  0  0  0  0  0  0  0  0  0  0
  -25.8363  -16.9208   -3.9776 N   0  0  0  0  0  0  0  0  0  0  0  0
  -24.7297  -10.2722    0.2643 Cl  0  0  0  0  0  0  0  0  0  0  0  0
  -24.3728  -13.3296   -3.6945 F   0  0  0  0  0  0  0  0  0  0  0  0
  -25.7434  -12.7116    1.2595 H   0  0  0  0  0  0  0  0  0  0  0  0
  -23.7717  -16.6085   -0.2204 H   0  0  0  0  0  0  0  0  0  0  0  0
  -26.0680  -14.9075    0.1592 H   0  0  0  0  0  0  0  0  0  0  0  0
  -24.1161  -11.1120   -2.3916 H   0  0  0  0  0  0  0  0  0  0  0  0
  -24.1254  -19.0183    1.6327 H   0  0  0  0  0  0  0  0  0  0  0  0
  -22.7951  -20.0894    2.1483 H   0  0  0  0  0  0  0  0  0  0  0  0
  -26.2058  -18.7350   -2.8254 H   0  0  0  0  0  0  0  0  0  0  0  0
  -23.1770  -16.3024    3.2617 H   0  0  0  0  0  0  0  0  0  0  0  0
  -22.6154  -16.0900    1.5698 H   0  0  0  0  0  0  0  0  0  0  0  0
  -24.9452  -17.9719    2.0158 H   0  0  0  0  0  0  0  0  0  0  0  0
  -27.0619  -16.1959    1.0142 H   0  0  0  0  0  0  0  0  0  0  0  0
  -28.6563  -14.7544    2.2651 H   0  0  0  0  0  0  0  0  0  0  0  0
  -24.0487  -15.4956    4.0041 H   0  0  0  0  0  0  0  0  0  0  0  0
  -25.9293  -17.3055   -4.9285 H   0  0  0  0  0  0  0  0  0  0  0  0
  1 12  2  0
  1 27  1  0
  2  3  2  0
  2  9  1  0
  2 28  1  0
  3  5  1  0
  4 16  1  0
  4 25  1  0
  5 11  2  0
  6 14  2  0
  7 12  1  0
  7 13  2  0
  7 25  1  0
  8  9  2  0
  8 11  1  0
  8 29  1  0
 10 14  1  0
 11 12  1  0
 13 27  1  0
 14 15  1  0
 16 15  1  0
 16 17  1  0
 17 18  2  0
 17 24  1  0
 18 19  1  0
 19 20  2  0
 20 21  1  0
 20 22  1  0
 22 23  1  0
 22 24  2  0
 25 26  2  0
  3 30  1  0
  4 31  1  0
  5 32  1  0
  9 33  1  0
 10 34  1  0
 10 35  1  0
 13 36  1  0
 15 37  1  0
 15 38  1  0
 16 39  1  6
 18 40  1  0
 19 41  1  0
 24 42  1  0
 27 43  1  0
M  END
>  <filename_input>  (18) 
8F8E_XJI_docked.sdf

>  <pdb_id>  (18) 
8F8E_XJI

>  <pose_rank>  (18) 
17

>  <num_atoms_heavy>  (18) 
29

>  <num_torsions>  (18) 
6

>  <pose>  (18) 
[-24.61558805797167, -16.887447734067546, 0.3001216269458516, 3.8245272328459605, -0.8028783620906863, 1.1461850747802067, -4.069742813708477, -2.405912481775173, 0.4491042199799839, 4.265529664157691, -0.5949489615414215, -2.033300764216823]

>  <energy>  (18) 
-363.6094604779783

>  <inter_energy>  (18) 
-492.51059153574556

>  <intra_energy>  (18) 
127.79950540645747

>  <rmsd>  (18) 
7.61616

>  <sdf_rank>  (18) 
0

$$$$

     RDKit          3D

 43 45  0  0  0  0  0  0  0  0999 V2000
  -24.2509  -17.7688    0.5989 N   0  0  0  0  0  0  0  0  0  0  0  0
  -20.0256  -17.2970    3.3190 C   0  0  0  0  0  0  0  0  0  0  0  0
  -19.7375  -17.8461    2.0986 C   0  0  0  0  0  0  0  0  0  0  0  0
  -21.6112  -21.1914    1.0455 N   0  0  0  0  0  0  0  0  0  0  0  0
  -20.7735  -18.2362    1.2744 C   0  0  0  0  0  0  0  0  0  0  0  0
  -22.2165  -25.6757    1.2579 O   0  0  0  0  0  0  0  0  0  0  0  0
  -23.2863  -19.7684    0.0711 C   0  0  0  0  0  0  0  0  0  0  0  0
  -22.3294  -17.5009    2.8986 C   0  0  0  0  0  0  0  0  0  0  0  0
  -21.3224  -17.1066    3.7457 C   0  0  0  0  0  0  0  0  0  0  0  0
  -22.0918  -23.9713    2.7215 N   0  0  0  0  0  0  0  0  0  0  0  0
  -22.0985  -18.0811    1.6639 C   0  0  0  0  0  0  0  0  0  0  0  0
  -23.1771  -18.5523    0.7884 C   0  0  0  0  0  0  0  0  0  0  0  0
  -24.5100  -19.6854   -0.5519 C   0  0  0  0  0  0  0  0  0  0  0  0
  -22.0291  -24.4859    1.5046 C   0  0  0  0  0  0  0  0  0  0  0  0
  -21.5378  -23.5600    0.4250 C   0  0  0  0  0  0  0  0  0  0  0  0
  -20.7836  -22.3999    1.0606 C   0  0  1  0  0  0  0  0  0  0  0  0
  -19.4693  -22.2412    0.3401 C   0  0  0  0  0  0  0  0  0  0  0  0
  -19.3771  -22.5608   -1.0100 C   0  0  0  0  0  0  0  0  0  0  0  0
  -18.2298  -22.2809   -1.7344 C   0  0  0  0  0  0  0  0  0  0  0  0
  -17.1839  -21.6687   -1.0993 C   0  0  0  0  0  0  0  0  0  0  0  0
  -16.1153  -21.2676   -1.8337 F   0  0  0  0  0  0  0  0  0  0  0  0
  -17.2391  -21.3697    0.2561 C   0  0  0  0  0  0  0  0  0  0  0  0
  -15.8869  -20.6520    1.0639 Cl  0  0  0  0  0  0  0  0  0  0  0  0
  -18.3789  -21.6624    0.9727 C   0  0  0  0  0  0  0  0  0  0  0  0
  -22.2715  -20.8365   -0.0629 C   0  0  0  0  0  0  0  0  0  0  0  0
  -22.0811  -21.3805   -1.1379 O   0  0  0  0  0  0  0  0  0  0  0  0
  -25.0395  -18.5019   -0.2177 N   0  0  0  0  0  0  0  0  0  0  0  0
  -18.7187  -16.8320    4.3597 Cl  0  0  0  0  0  0  0  0  0  0  0  0
  -23.5967  -17.3205    3.3042 F   0  0  0  0  0  0  0  0  0  0  0  0
  -18.6930  -17.9749    1.7787 H   0  0  0  0  0  0  0  0  0  0  0  0
  -21.6853  -20.6112    1.8933 H   0  0  0  0  0  0  0  0  0  0  0  0
  -20.5466  -18.6773    0.2926 H   0  0  0  0  0  0  0  0  0  0  0  0
  -21.5421  -16.6570    4.7253 H   0  0  0  0  0  0  0  0  0  0  0  0
  -21.9248  -22.9650    2.8644 H   0  0  0  0  0  0  0  0  0  0  0  0
  -22.3077  -24.5769    3.5262 H   0  0  0  0  0  0  0  0  0  0  0  0
  -24.9667  -20.4468   -1.2013 H   0  0  0  0  0  0  0  0  0  0  0  0
  -20.8657  -24.1084   -0.2514 H   0  0  0  0  0  0  0  0  0  0  0  0
  -22.3946  -23.1732   -0.1463 H   0  0  0  0  0  0  0  0  0  0  0  0
  -20.5635  -22.5969    2.1201 H   0  0  0  0  0  0  0  0  0  0  0  0
  -20.2290  -23.0436   -1.5112 H   0  0  0  0  0  0  0  0  0  0  0  0
  -18.1610  -22.5457   -2.7998 H   0  0  0  0  0  0  0  0  0  0  0  0
  -18.4243  -21.4366    2.0483 H   0  0  0  0  0  0  0  0  0  0  0  0
  -25.9596  -18.1809   -0.5511 H   0  0  0  0  0  0  0  0  0  0  0  0
  1 12  2  0
  1 27  1  0
  2  3  2  0
  2  9  1  0
  2 28  1  0
  3  5  1  0
  4 16  1  0
  4 25  1  0
  5 11  2  0
  6 14  2  0
  7 12  1  0
  7 13  2  0
  7 25  1  0
  8  9  2  0
  8 11  1  0
  8 29  1  0
 10 14  1  0
 11 12  1  0
 13 27  1  0
 14 15  1  0
 16 15  1  0
 16 17  1  0
 17 18  2  0
 17 24  1  0
 18 19  1  0
 19 20  2  0
 20 21  1  0
 20 22  1  0
 22 23  1  0
 22 24  2  0
 25 26  2  0
  3 30  1  0
  4 31  1  0
  5 32  1  0
  9 33  1  0
 10 34  1  0
 10 35  1  0
 13 36  1  0
 15 37  1  0
 15 38  1  0
 16 39  1  1
 18 40  1  0
 19 41  1  0
 24 42  1  0
 27 43  1  0
M  END
>  <filename_input>  (19) 
8F8E_XJI_docked.sdf

>  <pdb_id>  (19) 
8F8E_XJI

>  <pose_rank>  (19) 
18

>  <num_atoms_heavy>  (19) 
29

>  <num_torsions>  (19) 
6

>  <pose>  (19) 
[-21.61121861959935, -21.19135424957585, 1.0454728236760908, -0.35357779057149924, -0.4461961493703584, 0.16662455968896117, 3.9243215212879043, 4.967835285897669, 9.187951607078915, -4.3622374271393625, 5.432290948802493, -1.6497989308408212]

>  <energy>  (19) 
-459.2071255057111

>  <inter_energy>  (19) 
-546.9261353927756

>  <intra_energy>  (19) 
81.19029396618843

>  <rmsd>  (19) 
5.36854

>  <sdf_rank>  (19) 
0

$$$$

     RDKit          3D

 43 45  0  0  0  0  0  0  0  0999 V2000
  -26.6734  -12.8109    3.8742 N   0  0  0  0  0  0  0  0  0  0  0  0
  -27.8958  -11.9511   -0.9336 C   0  0  0  0  0  0  0  0  0  0  0  0
  -28.7631  -12.2518    0.0819 C   0  0  0  0  0  0  0  0  0  0  0  0
  -23.9329  -15.6148    1.5663 N   0  0  0  0  0  0  0  0  0  0  0  0
  -28.2617  -12.7247    1.2776 C   0  0  0  0  0  0  0  0  0  0  0  0
  -21.8279  -18.3950    2.9968 O   0  0  0  0  0  0  0  0  0  0  0  0
  -25.6209  -14.6156    2.9565 C   0  0  0  0  0  0  0  0  0  0  0  0
  -26.0660  -12.5595    0.4108 C   0  0  0  0  0  0  0  0  0  0  0  0
  -26.5317  -12.0917   -0.7939 C   0  0  0  0  0  0  0  0  0  0  0  0
  -21.8911  -19.6281    1.1157 N   0  0  0  0  0  0  0  0  0  0  0  0
  -26.8957  -12.9000    1.4644 C   0  0  0  0  0  0  0  0  0  0  0  0
  -26.3964  -13.4530    2.7281 C   0  0  0  0  0  0  0  0  0  0  0  0
  -25.4230  -14.6288    4.3177 C   0  0  0  0  0  0  0  0  0  0  0  0
  -22.3422  -18.6763    1.9160 C   0  0  0  0  0  0  0  0  0  0  0  0
  -23.6494  -18.0475    1.5161 C   0  0  0  0  0  0  0  0  0  0  0  0
  -23.3775  -16.7321    0.7989 C   0  0  1  0  0  0  0  0  0  0  0  0
  -23.9269  -16.8362   -0.6006 C   0  0  0  0  0  0  0  0  0  0  0  0
  -24.5968  -17.9884   -0.9973 C   0  0  0  0  0  0  0  0  0  0  0  0
  -25.2451  -18.0535   -2.2199 C   0  0  0  0  0  0  0  0  0  0  0  0
  -25.2271  -16.9536   -3.0335 C   0  0  0  0  0  0  0  0  0  0  0  0
  -25.9749  -16.9638   -4.1661 F   0  0  0  0  0  0  0  0  0  0  0  0
  -24.5371  -15.8027   -2.6744 C   0  0  0  0  0  0  0  0  0  0  0  0
  -24.4683  -14.4391   -3.7381 Cl  0  0  0  0  0  0  0  0  0  0  0  0
  -23.8843  -15.7498   -1.4622 C   0  0  0  0  0  0  0  0  0  0  0  0
  -25.2082  -15.6386    1.9706 C   0  0  0  0  0  0  0  0  0  0  0  0
  -26.0011  -16.4787    1.5790 O   0  0  0  0  0  0  0  0  0  0  0  0
  -26.0548  -13.5581    4.8150 N   0  0  0  0  0  0  0  0  0  0  0  0
  -28.5345  -11.3809   -2.4416 Cl  0  0  0  0  0  0  0  0  0  0  0  0
  -24.7388  -12.7008    0.5581 F   0  0  0  0  0  0  0  0  0  0  0  0
  -29.8465  -12.1182   -0.0534 H   0  0  0  0  0  0  0  0  0  0  0  0
  -23.3381  -14.8059    1.7960 H   0  0  0  0  0  0  0  0  0  0  0  0
  -28.9549  -12.9670    2.0966 H   0  0  0  0  0  0  0  0  0  0  0  0
  -25.8436  -11.8393   -1.6142 H   0  0  0  0  0  0  0  0  0  0  0  0
  -22.3659  -19.8169    0.2214 H   0  0  0  0  0  0  0  0  0  0  0  0
  -21.0651  -20.1805    1.3870 H   0  0  0  0  0  0  0  0  0  0  0  0
  -24.8539  -15.3768    4.8892 H   0  0  0  0  0  0  0  0  0  0  0  0
  -24.1932  -18.7269    0.8434 H   0  0  0  0  0  0  0  0  0  0  0  0
  -24.2569  -17.8588    2.4135 H   0  0  0  0  0  0  0  0  0  0  0  0
  -22.2984  -16.5329    0.7214 H   0  0  0  0  0  0  0  0  0  0  0  0
  -24.6122  -18.8623   -0.3295 H   0  0  0  0  0  0  0  0  0  0  0  0
  -25.7645  -18.9720   -2.5307 H   0  0  0  0  0  0  0  0  0  0  0  0
  -23.3282  -14.8445   -1.1771 H   0  0  0  0  0  0  0  0  0  0  0  0
  -26.0680  -13.3261    5.8185 H   0  0  0  0  0  0  0  0  0  0  0  0
  1 12  2  0
  1 27  1  0
  2  3  2  0
  2  9  1  0
  2 28  1  0
  3  5  1  0
  4 16  1  0
  4 25  1  0
  5 11  2  0
  6 14  2  0
  7 12  1  0
  7 13  2  0
  7 25  1  0
  8  9  2  0
  8 11  1  0
  8 29  1  0
 10 14  1  0
 11 12  1  0
 13 27  1  0
 14 15  1  0
 16 15  1  0
 16 17  1  0
 17 18  2  0
 17 24  1  0
 18 19  1  0
 19 20  2  0
 20 21  1  0
 20 22  1  0
 22 23  1  0
 22 24  2  0
 25 26  2  0
  3 30  1  0
  4 31  1  0
  5 32  1  0
  9 33  1  0
 10 34  1  0
 10 35  1  0
 13 36  1  0
 15 37  1  0
 15 38  1  0
 16 39  1  6
 18 40  1  0
 19 41  1  0
 24 42  1  0
 27 43  1  0
M  END
>  <filename_input>  (20) 
8F8E_XJI_docked.sdf

>  <pdb_id>  (20) 
8F8E_XJI

>  <pose_rank>  (20) 
19

>  <num_atoms_heavy>  (20) 
29

>  <num_torsions>  (20) 
6

>  <pose>  (20) 
[-23.93289519262776, -15.614799043195204, 1.5662830167282753, -0.34596889197854297, 0.8730029462262682, 0.6354114703045944, 4.990893407024674, 0.029099357735017418, 2.8059754419433585, 1.4165615652382164, -1.0660046633924058, -3.7131286789325286]

>  <energy>  (20) 
-509.9626654149567

>  <inter_energy>  (20) 
-531.9589354189048

>  <intra_energy>  (20) 
34.6418460674409

>  <rmsd>  (20) 
7.0125

>  <sdf_rank>  (20) 
0

$$$$

     RDKit          3D

 43 45  0  0  0  0  0  0  0  0999 V2000
  -29.2091  -13.3712    4.0874 N   0  0  0  0  0  0  0  0  0  0  0  0
  -25.4703  -11.5149    6.8548 C   0  0  0  0  0  0  0  0  0  0  0  0
  -25.4138  -12.8780    6.7415 C   0  0  0  0  0  0  0  0  0  0  0  0
  -25.8202  -15.8660    2.1784 N   0  0  0  0  0  0  0  0  0  0  0  0
  -26.1896  -13.5071    5.7892 C   0  0  0  0  0  0  0  0  0  0  0  0
  -22.0331  -18.5179    2.4227 O   0  0  0  0  0  0  0  0  0  0  0  0
  -27.5062  -14.3072    2.8911 C   0  0  0  0  0  0  0  0  0  0  0  0
  -27.0239  -11.4046    5.0940 C   0  0  0  0  0  0  0  0  0  0  0  0
  -26.2689  -10.7470    6.0346 C   0  0  0  0  0  0  0  0  0  0  0  0
  -22.0707  -16.9196    0.8393 N   0  0  0  0  0  0  0  0  0  0  0  0
  -27.0240  -12.7805    4.9481 C   0  0  0  0  0  0  0  0  0  0  0  0
  -27.8753  -13.4811    3.9804 C   0  0  0  0  0  0  0  0  0  0  0  0
  -28.7051  -14.7137    2.3528 C   0  0  0  0  0  0  0  0  0  0  0  0
  -22.6428  -17.6864    1.7527 C   0  0  0  0  0  0  0  0  0  0  0  0
  -24.1443  -17.6166    1.8213 C   0  0  0  0  0  0  0  0  0  0  0  0
  -24.6015  -16.2141    1.4440 C   0  0  1  0  0  0  0  0  0  0  0  0
  -24.7616  -16.1577   -0.0536 C   0  0  0  0  0  0  0  0  0  0  0  0
  -25.3009  -17.2443   -0.7334 C   0  0  0  0  0  0  0  0  0  0  0  0
  -25.6031  -17.1649   -2.0831 C   0  0  0  0  0  0  0  0  0  0  0  0
  -25.3729  -15.9873   -2.7406 C   0  0  0  0  0  0  0  0  0  0  0  0
  -25.7949  -15.8601   -4.0243 F   0  0  0  0  0  0  0  0  0  0  0  0
  -24.8043  -14.8987   -2.0916 C   0  0  0  0  0  0  0  0  0  0  0  0
  -24.4595  -13.4343   -2.9475 Cl  0  0  0  0  0  0  0  0  0  0  0  0
  -24.4949  -14.9893   -0.7521 C   0  0  0  0  0  0  0  0  0  0  0  0
  -26.1445  -14.5841    2.3835 C   0  0  0  0  0  0  0  0  0  0  0  0
  -25.3756  -13.6695    2.1380 O   0  0  0  0  0  0  0  0  0  0  0  0
  -29.6738  -14.1438    3.0807 N   0  0  0  0  0  0  0  0  0  0  0  0
  -24.5117  -10.7332    8.0701 Cl  0  0  0  0  0  0  0  0  0  0  0  0
  -27.8058  -10.6666    4.2897 F   0  0  0  0  0  0  0  0  0  0  0  0
  -24.7580  -13.4647    7.4016 H   0  0  0  0  0  0  0  0  0  0  0  0
  -26.4312  -16.6125    2.5392 H   0  0  0  0  0  0  0  0  0  0  0  0
  -26.1469  -14.6022    5.6942 H   0  0  0  0  0  0  0  0  0  0  0  0
  -26.3003   -9.6515    6.1294 H   0  0  0  0  0  0  0  0  0  0  0  0
  -22.6358  -16.2406    0.3096 H   0  0  0  0  0  0  0  0  0  0  0  0
  -21.0602  -17.0016    0.6576 H   0  0  0  0  0  0  0  0  0  0  0  0
  -28.8421  -15.3802    1.4885 H   0  0  0  0  0  0  0  0  0  0  0  0
  -24.5783  -18.3453    1.1208 H   0  0  0  0  0  0  0  0  0  0  0  0
  -24.4774  -17.8499    2.8434 H   0  0  0  0  0  0  0  0  0  0  0  0
  -23.8553  -15.4583    1.7300 H   0  0  0  0  0  0  0  0  0  0  0  0
  -25.4905  -18.1821   -0.1907 H   0  0  0  0  0  0  0  0  0  0  0  0
  -26.0203  -18.0321   -2.6160 H   0  0  0  0  0  0  0  0  0  0  0  0
  -24.0356  -14.1336   -0.2356 H   0  0  0  0  0  0  0  0  0  0  0  0
  -30.6769  -14.2811    2.8916 H   0  0  0  0  0  0  0  0  0  0  0  0
  1 12  2  0
  1 27  1  0
  2  3  2  0
  2  9  1  0
  2 28  1  0
  3  5  1  0
  4 16  1  0
  4 25  1  0
  5 11  2  0
  6 14  2  0
  7 12  1  0
  7 13  2  0
  7 25  1  0
  8  9  2  0
  8 11  1  0
  8 29  1  0
 10 14  1  0
 11 12  1  0
 13 27  1  0
 14 15  1  0
 16 15  1  0
 16 17  1  0
 17 18  2  0
 17 24  1  0
 18 19  1  0
 19 20  2  0
 20 21  1  0
 20 22  1  0
 22 23  1  0
 22 24  2  0
 25 26  2  0
  3 30  1  0
  4 31  1  0
  5 32  1  0
  9 33  1  0
 10 34  1  0
 10 35  1  0
 13 36  1  0
 15 37  1  0
 15 38  1  0
 16 39  1  1
 18 40  1  0
 19 41  1  0
 24 42  1  0
 27 43  1  0
M  END
>  <filename_input>  (21) 
8F8E_XJI_docked.sdf

>  <pdb_id>  (21) 
8F8E_XJI

>  <pose_rank>  (21) 
20

>  <num_atoms_heavy>  (21) 
29

>  <num_torsions>  (21) 
6

>  <pose>  (21) 
[-25.82017070336674, -15.865984832457498, 2.1784468881685455, -3.3853630602629963, 3.0622549520389186, 0.7839326148095194, -0.8360215927598729, 3.1100465449852672, -6.126178009359973, -4.225016435147622, -1.6136237204036052, 3.7366842810747927]

>  <energy>  (21) 
-429.3792405676944

>  <inter_energy>  (21) 
-443.99093223065773

>  <intra_energy>  (21) 
30.54207979201463

>  <rmsd>  (21) 
8.92532

>  <sdf_rank>  (21) 
0

$$$$

     RDKit          3D

 43 45  0  0  0  0  0  0  0  0999 V2000
  -23.2575  -18.2080    1.4088 N   0  0  0  0  0  0  0  0  0  0  0  0
  -25.1289  -16.9775   -3.0623 C   0  0  0  0  0  0  0  0  0  0  0  0
  -25.9069  -17.7491   -2.2417 C   0  0  0  0  0  0  0  0  0  0  0  0
  -25.0799  -14.2282    2.3224 N   0  0  0  0  0  0  0  0  0  0  0  0
  -25.5952  -17.8308   -0.8998 C   0  0  0  0  0  0  0  0  0  0  0  0
  -26.3672  -10.9333   -0.3186 O   0  0  0  0  0  0  0  0  0  0  0  0
  -24.6796  -16.5939    2.1699 C   0  0  0  0  0  0  0  0  0  0  0  0
  -23.7704  -16.3642   -1.2445 C   0  0  0  0  0  0  0  0  0  0  0  0
  -24.0493  -16.2649   -2.5859 C   0  0  0  0  0  0  0  0  0  0  0  0
  -24.6330  -12.3351   -0.6197 N   0  0  0  0  0  0  0  0  0  0  0  0
  -24.5077  -17.1451   -0.3721 C   0  0  0  0  0  0  0  0  0  0  0  0
  -24.1706  -17.2922    1.0480 C   0  0  0  0  0  0  0  0  0  0  0  0
  -24.0327  -17.1604    3.2436 C   0  0  0  0  0  0  0  0  0  0  0  0
  -25.8418  -12.0355   -0.1739 C   0  0  0  0  0  0  0  0  0  0  0  0
  -26.4990  -13.0767    0.6911 C   0  0  0  0  0  0  0  0  0  0  0  0
  -25.8900  -13.0309    2.0859 C   0  0  1  0  0  0  0  0  0  0  0  0
  -27.0068  -12.8505    3.0818 C   0  0  0  0  0  0  0  0  0  0  0  0
  -26.7183  -12.7823    4.4404 C   0  0  0  0  0  0  0  0  0  0  0  0
  -27.6999  -12.4634    5.3647 C   0  0  0  0  0  0  0  0  0  0  0  0
  -28.9658  -12.2020    4.9162 C   0  0  0  0  0  0  0  0  0  0  0  0
  -29.8945  -11.7547    5.7990 F   0  0  0  0  0  0  0  0  0  0  0  0
  -29.2865  -12.2961    3.5679 C   0  0  0  0  0  0  0  0  0  0  0  0
  -30.9051  -12.0244    3.0181 Cl  0  0  0  0  0  0  0  0  0  0  0  0
  -28.3077  -12.6259    2.6560 C   0  0  0  0  0  0  0  0  0  0  0  0
  -25.6135  -15.4466    2.1766 C   0  0  0  0  0  0  0  0  0  0  0  0
  -26.8111  -15.6200    2.0228 O   0  0  0  0  0  0  0  0  0  0  0  0
  -23.2110  -18.0979    2.7548 N   0  0  0  0  0  0  0  0  0  0  0  0
  -25.5116  -16.8992   -4.7518 Cl  0  0  0  0  0  0  0  0  0  0  0  0
  -22.7207  -15.6745   -0.7695 F   0  0  0  0  0  0  0  0  0  0  0  0
  -26.7701  -18.2974   -2.6471 H   0  0  0  0  0  0  0  0  0  0  0  0
  -24.0935  -14.1316    2.6026 H   0  0  0  0  0  0  0  0  0  0  0  0
  -26.2180  -18.4492   -0.2367 H   0  0  0  0  0  0  0  0  0  0  0  0
  -23.4359  -15.6417   -3.2532 H   0  0  0  0  0  0  0  0  0  0  0  0
  -24.2468  -13.2777   -0.4672 H   0  0  0  0  0  0  0  0  0  0  0  0
  -24.0780  -11.6257   -1.1194 H   0  0  0  0  0  0  0  0  0  0  0  0
  -24.1652  -16.8939    4.3026 H   0  0  0  0  0  0  0  0  0  0  0  0
  -27.5782  -12.8735    0.7546 H   0  0  0  0  0  0  0  0  0  0  0  0
  -26.3404  -14.0730    0.2527 H   0  0  0  0  0  0  0  0  0  0  0  0
  -25.2022  -12.1795    2.1956 H   0  0  0  0  0  0  0  0  0  0  0  0
  -25.6942  -12.9849    4.7869 H   0  0  0  0  0  0  0  0  0  0  0  0
  -27.4659  -12.4212    6.4387 H   0  0  0  0  0  0  0  0  0  0  0  0
  -28.5584  -12.7113    1.5883 H   0  0  0  0  0  0  0  0  0  0  0  0
  -22.6019  -18.6793    3.3480 H   0  0  0  0  0  0  0  0  0  0  0  0
  1 12  2  0
  1 27  1  0
  2  3  2  0
  2  9  1  0
  2 28  1  0
  3  5  1  0
  4 16  1  0
  4 25  1  0
  5 11  2  0
  6 14  2  0
  7 12  1  0
  7 13  2  0
  7 25  1  0
  8  9  2  0
  8 11  1  0
  8 29  1  0
 10 14  1  0
 11 12  1  0
 13 27  1  0
 14 15  1  0
 16 15  1  0
 16 17  1  0
 17 18  2  0
 17 24  1  0
 18 19  1  0
 19 20  2  0
 20 21  1  0
 20 22  1  0
 22 23  1  0
 22 24  2  0
 25 26  2  0
  3 30  1  0
  4 31  1  0
  5 32  1  0
  9 33  1  0
 10 34  1  0
 10 35  1  0
 13 36  1  0
 15 37  1  0
 15 38  1  0
 16 39  1  6
 18 40  1  0
 19 41  1  0
 24 42  1  0
 27 43  1  0
M  END
>  <filename_input>  (22) 
8F8E_XJI_docked.sdf

>  <pdb_id>  (22) 
8F8E_XJI

>  <pose_rank>  (22) 
21

>  <num_atoms_heavy>  (22) 
29

>  <num_torsions>  (22) 
6

>  <pose>  (22) 
[-25.07993515416493, -14.228158695062852, 2.322375916642889, 2.0220857322708685, 0.7337045848256072, 1.6944557162415048, 1.4296124661513678, -16.14433185438043, -16.106943638438736, -1.7734066472039147, -0.952788549800195, -13.213406673148285]

>  <energy>  (22) 
-393.41587572188485

>  <inter_energy>  (22) 
-414.07458127279745

>  <intra_energy>  (22) 
28.881850171980677

>  <rmsd>  (22) 
9.26099

>  <sdf_rank>  (22) 
0

$$$$

     RDKit          3D

 43 45  0  0  0  0  0  0  0  0999 V2000
  -25.7039  -10.1473    0.3854 N   0  0  0  0  0  0  0  0  0  0  0  0
  -30.2681  -12.1739    1.0874 C   0  0  0  0  0  0  0  0  0  0  0  0
  -29.2982  -12.2790    2.0478 C   0  0  0  0  0  0  0  0  0  0  0  0
  -24.3904  -14.4141   -0.7770 N   0  0  0  0  0  0  0  0  0  0  0  0
  -27.9897  -11.9896    1.7177 C   0  0  0  0  0  0  0  0  0  0  0  0
  -26.0342  -17.6798   -2.1525 O   0  0  0  0  0  0  0  0  0  0  0  0
  -25.2939  -12.2009   -0.5211 C   0  0  0  0  0  0  0  0  0  0  0  0
  -28.6689  -11.4865   -0.4926 C   0  0  0  0  0  0  0  0  0  0  0  0
  -29.9803  -11.7720   -0.1994 C   0  0  0  0  0  0  0  0  0  0  0  0
  -25.1570  -17.2502   -4.1795 N   0  0  0  0  0  0  0  0  0  0  0  0
  -27.6440  -11.5958    0.4305 C   0  0  0  0  0  0  0  0  0  0  0  0
  -26.2378  -11.3448    0.0964 C   0  0  0  0  0  0  0  0  0  0  0  0
  -24.1527  -11.4380   -0.6109 C   0  0  0  0  0  0  0  0  0  0  0  0
  -25.1498  -17.1981   -2.8578 C   0  0  0  0  0  0  0  0  0  0  0  0
  -24.0693  -16.3524   -2.2402 C   0  0  0  0  0  0  0  0  0  0  0  0
  -24.5279  -15.8694   -0.8709 C   0  0  1  0  0  0  0  0  0  0  0  0
  -23.7480  -16.6190    0.1786 C   0  0  0  0  0  0  0  0  0  0  0  0
  -24.0246  -16.4125    1.5256 C   0  0  0  0  0  0  0  0  0  0  0  0
  -23.4358  -17.1960    2.5047 C   0  0  0  0  0  0  0  0  0  0  0  0
  -22.5800  -18.1931    2.1231 C   0  0  0  0  0  0  0  0  0  0  0  0
  -22.1105  -19.0500    3.0650 F   0  0  0  0  0  0  0  0  0  0  0  0
  -22.2622  -18.3976    0.7864 C   0  0  0  0  0  0  0  0  0  0  0  0
  -21.1306  -19.6211    0.3189 Cl  0  0  0  0  0  0  0  0  0  0  0  0
  -22.8422  -17.6063   -0.1809 C   0  0  0  0  0  0  0  0  0  0  0  0
  -25.4643  -13.6237   -0.8886 C   0  0  0  0  0  0  0  0  0  0  0  0
  -26.5514  -14.0469   -1.2450 O   0  0  0  0  0  0  0  0  0  0  0  0
  -24.4352  -10.2464   -0.0695 N   0  0  0  0  0  0  0  0  0  0  0  0
  -31.9061  -12.5630    1.5027 Cl  0  0  0  0  0  0  0  0  0  0  0  0
  -28.3769  -11.0944   -1.7432 F   0  0  0  0  0  0  0  0  0  0  0  0
  -29.5586  -12.5902    3.0702 H   0  0  0  0  0  0  0  0  0  0  0  0
  -23.4613  -13.9966   -0.6242 H   0  0  0  0  0  0  0  0  0  0  0  0
  -27.2073  -12.0721    2.4865 H   0  0  0  0  0  0  0  0  0  0  0  0
  -30.7691  -11.6835   -0.9609 H   0  0  0  0  0  0  0  0  0  0  0  0
  -24.3859  -16.8273   -4.7158 H   0  0  0  0  0  0  0  0  0  0  0  0
  -25.9336  -17.7137   -4.6724 H   0  0  0  0  0  0  0  0  0  0  0  0
  -23.1907  -11.7481   -1.0451 H   0  0  0  0  0  0  0  0  0  0  0  0
  -23.1524  -16.9502   -2.1307 H   0  0  0  0  0  0  0  0  0  0  0  0
  -23.8651  -15.4861   -2.8867 H   0  0  0  0  0  0  0  0  0  0  0  0
  -25.5955  -16.0788   -0.7085 H   0  0  0  0  0  0  0  0  0  0  0  0
  -24.7222  -15.6140    1.8185 H   0  0  0  0  0  0  0  0  0  0  0  0
  -23.6521  -17.0199    3.5688 H   0  0  0  0  0  0  0  0  0  0  0  0
  -22.5866  -17.7576   -1.2400 H   0  0  0  0  0  0  0  0  0  0  0  0
  -23.7512   -9.4790   -0.0057 H   0  0  0  0  0  0  0  0  0  0  0  0
  1 12  2  0
  1 27  1  0
  2  3  2  0
  2  9  1  0
  2 28  1  0
  3  5  1  0
  4 16  1  0
  4 25  1  0
  5 11  2  0
  6 14  2  0
  7 12  1  0
  7 13  2  0
  7 25  1  0
  8  9  2  0
  8 11  1  0
  8 29  1  0
 10 14  1  0
 11 12  1  0
 13 27  1  0
 14 15  1  0
 16 15  1  0
 16 17  1  0
 17 18  2  0
 17 24  1  0
 18 19  1  0
 19 20  2  0
 20 21  1  0
 20 22  1  0
 22 23  1  0
 22 24  2  0
 25 26  2  0
  3 30  1  0
  4 31  1  0
  5 32  1  0
  9 33  1  0
 10 34  1  0
 10 35  1  0
 13 36  1  0
 15 37  1  0
 15 38  1  0
 16 39  1  1
 18 40  1  0
 19 41  1  0
 24 42  1  0
 27 43  1  0
M  END
>  <filename_input>  (23) 
8F8E_XJI_docked.sdf

>  <pdb_id>  (23) 
8F8E_XJI

>  <pose_rank>  (23) 
22

>  <num_atoms_heavy>  (23) 
29

>  <num_torsions>  (23) 
6

>  <pose>  (23) 
[-24.39036783297357, -14.414104811465148, -0.7770426194247375, 2.8878916503946304, -4.356202404651392, 0.9202245414909456, 0.6297728427551594, 5.890380080128767, -0.7808642796492969, -1.7124689158408486, -1.2567259627569256, 0.705798680892849]

>  <energy>  (23) 
-402.6117755217365

>  <inter_energy>  (23) 
-406.7251469986705

>  <intra_energy>  (23) 
9.572118490794118

>  <rmsd>  (23) 
7.77705

>  <sdf_rank>  (23) 
0

$$$$

     RDKit          3D

 43 45  0  0  0  0  0  0  0  0999 V2000
  -26.4031  -12.1463    2.8680 N   0  0  0  0  0  0  0  0  0  0  0  0
  -27.3444  -11.4491   -2.0339 C   0  0  0  0  0  0  0  0  0  0  0  0
  -28.3280  -11.6557   -1.1044 C   0  0  0  0  0  0  0  0  0  0  0  0
  -25.0635  -15.3350    0.1744 N   0  0  0  0  0  0  0  0  0  0  0  0
  -27.9843  -12.1282    0.1459 C   0  0  0  0  0  0  0  0  0  0  0  0
  -25.7316  -16.7624   -3.2504 O   0  0  0  0  0  0  0  0  0  0  0  0
  -25.9219  -14.2562    2.1441 C   0  0  0  0  0  0  0  0  0  0  0  0
  -25.7075  -12.1490   -0.4988 C   0  0  0  0  0  0  0  0  0  0  0  0
  -26.0153  -11.6845   -1.7544 C   0  0  0  0  0  0  0  0  0  0  0  0
  -24.8345  -14.7239   -3.5710 N   0  0  0  0  0  0  0  0  0  0  0  0
  -26.6606  -12.3969    0.4732 C   0  0  0  0  0  0  0  0  0  0  0  0
  -26.3316  -12.9470    1.7927 C   0  0  0  0  0  0  0  0  0  0  0  0
  -25.7255  -14.1959    3.5043 C   0  0  0  0  0  0  0  0  0  0  0  0
  -24.8820  -15.9121   -2.9917 C   0  0  0  0  0  0  0  0  0  0  0  0
  -23.9276  -16.1232   -1.8477 C   0  0  0  0  0  0  0  0  0  0  0  0
  -24.7109  -16.5239   -0.6050 C   0  0  1  0  0  0  0  0  0  0  0  0
  -23.8927  -17.5296    0.1636 C   0  0  0  0  0  0  0  0  0  0  0  0
  -23.9949  -18.8826   -0.1407 C   0  0  0  0  0  0  0  0  0  0  0  0
  -23.1462  -19.8119    0.4387 C   0  0  0  0  0  0  0  0  0  0  0  0
  -22.1893  -19.3737    1.3129 C   0  0  0  0  0  0  0  0  0  0  0  0
  -21.2690  -20.2580    1.7746 F   0  0  0  0  0  0  0  0  0  0  0  0
  -22.0887  -18.0319    1.6582 C   0  0  0  0  0  0  0  0  0  0  0  0
  -20.9153  -17.4967    2.8126 Cl  0  0  0  0  0  0  0  0  0  0  0  0
  -22.9444  -17.1153    1.0874 C   0  0  0  0  0  0  0  0  0  0  0  0
  -25.8289  -15.4436    1.2666 C   0  0  0  0  0  0  0  0  0  0  0  0
  -26.4058  -16.4779    1.5586 O   0  0  0  0  0  0  0  0  0  0  0  0
  -26.0184  -12.9465    3.8867 N   0  0  0  0  0  0  0  0  0  0  0  0
  -27.7862  -10.8789   -3.6108 Cl  0  0  0  0  0  0  0  0  0  0  0  0
  -24.4158  -12.3821   -0.2155 F   0  0  0  0  0  0  0  0  0  0  0  0
  -29.3796  -11.4475   -1.3511 H   0  0  0  0  0  0  0  0  0  0  0  0
  -24.7202  -14.4096   -0.1200 H   0  0  0  0  0  0  0  0  0  0  0  0
  -28.7713  -12.2950    0.8960 H   0  0  0  0  0  0  0  0  0  0  0  0
  -25.2324  -11.5073   -2.5066 H   0  0  0  0  0  0  0  0  0  0  0  0
  -24.0971  -14.0534   -3.3113 H   0  0  0  0  0  0  0  0  0  0  0  0
  -25.5351  -14.4692   -4.2818 H   0  0  0  0  0  0  0  0  0  0  0  0
  -25.3913  -15.0179    4.1544 H   0  0  0  0  0  0  0  0  0  0  0  0
  -23.2153  -16.9206   -2.1060 H   0  0  0  0  0  0  0  0  0  0  0  0
  -23.3768  -15.1915   -1.6511 H   0  0  0  0  0  0  0  0  0  0  0  0
  -25.6662  -17.0009   -0.8694 H   0  0  0  0  0  0  0  0  0  0  0  0
  -24.7620  -19.2206   -0.8529 H   0  0  0  0  0  0  0  0  0  0  0  0
  -23.2399  -20.8816    0.2003 H   0  0  0  0  0  0  0  0  0  0  0  0
  -22.8755  -16.0531    1.3646 H   0  0  0  0  0  0  0  0  0  0  0  0
  -25.9564  -12.6261    4.8636 H   0  0  0  0  0  0  0  0  0  0  0  0
  1 12  2  0
  1 27  1  0
  2  3  2  0
  2  9  1  0
  2 28  1  0
  3  5  1  0
  4 16  1  0
  4 25  1  0
  5 11  2  0
  6 14  2  0
  7 12  1  0
  7 13  2  0
  7 25  1  0
  8  9  2  0
  8 11  1  0
  8 29  1  0
 10 14  1  0
 11 12  1  0
 13 27  1  0
 14 15  1  0
 16 15  1  0
 16 17  1  0
 17 18  2  0
 17 24  1  0
 18 19  1  0
 19 20  2  0
 20 21  1  0
 20 22  1  0
 22 23  1  0
 22 24  2  0
 25 26  2  0
  3 30  1  0
  4 31  1  0
  5 32  1  0
  9 33  1  0
 10 34  1  0
 10 35  1  0
 13 36  1  0
 15 37  1  0
 15 38  1  0
 16 39  1  6
 18 40  1  0
 19 41  1  0
 24 42  1  0
 27 43  1  0
M  END
>  <filename_input>  (24) 
8F8E_XJI_docked.sdf

>  <pdb_id>  (24) 
8F8E_XJI

>  <pose_rank>  (24) 
23

>  <num_atoms_heavy>  (24) 
29

>  <num_torsions>  (24) 
6

>  <pose>  (24) 
[-25.06349738369087, -15.334952398262107, 0.17443941282762038, -0.48614168550005077, 1.5298215701325801, 0.899330343345494, -2.1398200717041465, -0.21802476002538734, 0.49161459837106936, -0.1492632361777906, 5.65217112402311, 6.450679551832375]

>  <energy>  (24) 
-385.7621053395208

>  <inter_energy>  (24) 
-405.9299968732523

>  <intra_energy>  (24) 
25.093440128671364

>  <rmsd>  (24) 
6.61128

>  <sdf_rank>  (24) 
0

$$$$

     RDKit          3D

 43 45  0  0  0  0  0  0  0  0999 V2000
  -23.0126  -19.1263    0.4961 N   0  0  0  0  0  0  0  0  0  0  0  0
  -25.7155  -17.7447   -3.4743 C   0  0  0  0  0  0  0  0  0  0  0  0
  -26.2870  -18.4590   -2.4559 C   0  0  0  0  0  0  0  0  0  0  0  0
  -25.6243  -15.6940    1.6067 N   0  0  0  0  0  0  0  0  0  0  0  0
  -25.6419  -18.5287   -1.2378 C   0  0  0  0  0  0  0  0  0  0  0  0
  -25.6195  -12.3486   -0.6847 O   0  0  0  0  0  0  0  0  0  0  0  0
  -23.7157  -17.1352    1.3611 C   0  0  0  0  0  0  0  0  0  0  0  0
  -23.9068  -17.1635   -2.0897 C   0  0  0  0  0  0  0  0  0  0  0  0
  -24.5194  -17.0779   -3.3163 C   0  0  0  0  0  0  0  0  0  0  0  0
  -26.3295  -11.5232    1.2844 N   0  0  0  0  0  0  0  0  0  0  0  0
  -24.4260  -17.8880   -1.0313 C   0  0  0  0  0  0  0  0  0  0  0  0
  -23.7391  -18.0226    0.2578 C   0  0  0  0  0  0  0  0  0  0  0  0
  -22.9443  -17.7812    2.2991 C   0  0  0  0  0  0  0  0  0  0  0  0
  -26.1760  -12.4963    0.4017 C   0  0  0  0  0  0  0  0  0  0  0  0
  -26.8805  -13.7875    0.7191 C   0  0  0  0  0  0  0  0  0  0  0  0
  -26.2494  -14.4157    1.9542 C   0  0  1  0  0  0  0  0  0  0  0  0
  -27.3105  -14.5314    3.0183 C   0  0  0  0  0  0  0  0  0  0  0  0
  -28.4718  -15.2521    2.7622 C   0  0  0  0  0  0  0  0  0  0  0  0
  -29.3918  -15.5060    3.7664 C   0  0  0  0  0  0  0  0  0  0  0  0
  -29.1330  -15.0440    5.0280 C   0  0  0  0  0  0  0  0  0  0  0  0
  -29.9590  -15.4078    6.0416 F   0  0  0  0  0  0  0  0  0  0  0  0
  -27.9966  -14.2934    5.3015 C   0  0  0  0  0  0  0  0  0  0  0  0
  -27.7096  -13.6606    6.8868 Cl  0  0  0  0  0  0  0  0  0  0  0  0
  -27.0923  -14.0344    4.2948 C   0  0  0  0  0  0  0  0  0  0  0  0
  -24.2986  -15.7781    1.4458 C   0  0  0  0  0  0  0  0  0  0  0  0
  -23.5831  -14.7912    1.4011 O   0  0  0  0  0  0  0  0  0  0  0  0
  -22.5534  -18.9397    1.7533 N   0  0  0  0  0  0  0  0  0  0  0  0
  -26.5192  -17.6821   -5.0095 Cl  0  0  0  0  0  0  0  0  0  0  0  0
  -22.7410  -16.5181   -1.9245 F   0  0  0  0  0  0  0  0  0  0  0  0
  -27.2487  -18.9712   -2.6065 H   0  0  0  0  0  0  0  0  0  0  0  0
  -26.2089  -16.5334    1.4855 H   0  0  0  0  0  0  0  0  0  0  0  0
  -26.0979  -19.1010   -0.4164 H   0  0  0  0  0  0  0  0  0  0  0  0
  -24.0734  -16.5003   -4.1394 H   0  0  0  0  0  0  0  0  0  0  0  0
  -26.8053  -11.7095    2.1788 H   0  0  0  0  0  0  0  0  0  0  0  0
  -25.9733  -10.5792    1.0774 H   0  0  0  0  0  0  0  0  0  0  0  0
  -22.6957  -17.4155    3.3063 H   0  0  0  0  0  0  0  0  0  0  0  0
  -27.9448  -13.5874    0.9118 H   0  0  0  0  0  0  0  0  0  0  0  0
  -26.7872  -14.4768   -0.1330 H   0  0  0  0  0  0  0  0  0  0  0  0
  -25.4401  -13.7876    2.3548 H   0  0  0  0  0  0  0  0  0  0  0  0
  -28.6631  -15.6266    1.7458 H   0  0  0  0  0  0  0  0  0  0  0  0
  -30.3129  -16.0685    3.5536 H   0  0  0  0  0  0  0  0  0  0  0  0
  -26.1956  -13.4324    4.5038 H   0  0  0  0  0  0  0  0  0  0  0  0
  -21.9596  -19.6231    2.2445 H   0  0  0  0  0  0  0  0  0  0  0  0
  1 12  2  0
  1 27  1  0
  2  3  2  0
  2  9  1  0
  2 28  1  0
  3  5  1  0
  4 16  1  0
  4 25  1  0
  5 11  2  0
  6 14  2  0
  7 12  1  0
  7 13  2  0
  7 25  1  0
  8  9  2  0
  8 11  1  0
  8 29  1  0
 10 14  1  0
 11 12  1  0
 13 27  1  0
 14 15  1  0
 16 15  1  0
 16 17  1  0
 17 18  2  0
 17 24  1  0
 18 19  1  0
 19 20  2  0
 20 21  1  0
 20 22  1  0
 22 23  1  0
 22 24  2  0
 25 26  2  0
  3 30  1  0
  4 31  1  0
  5 32  1  0
  9 33  1  0
 10 34  1  0
 10 35  1  0
 13 36  1  0
 15 37  1  0
 15 38  1  0
 16 39  1  1
 18 40  1  0
 19 41  1  0
 24 42  1  0
 27 43  1  0
M  END
>  <filename_input>  (25) 
8F8E_XJI_docked.sdf

>  <pdb_id>  (25) 
8F8E_XJI

>  <pose_rank>  (25) 
24

>  <num_atoms_heavy>  (25) 
29

>  <num_torsions>  (25) 
6

>  <pose>  (25) 
[-25.62433599647753, -15.69404442688815, 1.6067172701319197, -1.0783671335596763, -1.6423921850122885, 2.7081548987041133, 4.499996488068423, 2.4713151067581274, -0.7999884816591883, 2.3839922244237814, -1.053531316693873, -3.1533697686110336]

>  <energy>  (25) 
-482.85406485340576

>  <inter_energy>  (25) 
-483.27247400018905

>  <intra_energy>  (25) 
0.6071309707635905

>  <rmsd>  (25) 
8.25008

>  <sdf_rank>  (25) 
0

$$$$

     RDKit          3D

 43 45  0  0  0  0  0  0  0  0999 V2000
  -23.8170  -17.1970    2.0350 N   0  0  0  0  0  0  0  0  0  0  0  0
  -25.1880  -17.0910   -2.8090 C   0  0  0  0  0  0  0  0  0  0  0  0
  -25.9760  -17.4790   -1.7590 C   0  0  0  0  0  0  0  0  0  0  0  0
  -20.8970  -20.6630    0.9280 N   0  0  0  0  0  0  0  0  0  0  0  0
  -25.3920  -17.7200   -0.5320 C   0  0  0  0  0  0  0  0  0  0  0  0
  -18.1730  -20.4330   -0.9590 O   0  0  0  0  0  0  0  0  0  0  0  0
  -22.4370  -18.8510    1.2820 C   0  0  0  0  0  0  0  0  0  0  0  0
  -23.2790  -17.1610   -1.4390 C   0  0  0  0  0  0  0  0  0  0  0  0
  -23.8270  -16.9180   -2.6750 C   0  0  0  0  0  0  0  0  0  0  0  0
  -17.6000  -20.2730    1.2110 N   0  0  0  0  0  0  0  0  0  0  0  0
  -24.0220  -17.5760   -0.3480 C   0  0  0  0  0  0  0  0  0  0  0  0
  -23.4230  -17.8890    0.9540 C   0  0  0  0  0  0  0  0  0  0  0  0
  -22.2380  -18.6850    2.6330 C   0  0  0  0  0  0  0  0  0  0  0  0
  -18.1650  -20.8860    0.1840 C   0  0  0  0  0  0  0  0  0  0  0  0
  -18.9680  -22.1150    0.5140 C   0  0  0  0  0  0  0  0  0  0  0  0
  -20.4370  -21.8540    0.2100 C   0  0  1  0  0  0  0  0  0  0  0  0
  -21.2160  -23.1000    0.5450 C   0  0  0  0  0  0  0  0  0  0  0  0
  -21.2150  -24.1750   -0.3370 C   0  0  0  0  0  0  0  0  0  0  0  0
  -21.7910  -25.3860    0.0110 C   0  0  0  0  0  0  0  0  0  0  0  0
  -22.3550  -25.5140    1.2510 C   0  0  0  0  0  0  0  0  0  0  0  0
  -22.7950  -26.7350    1.6480 F   0  0  0  0  0  0  0  0  0  0  0  0
  -22.3980  -24.4450    2.1370 C   0  0  0  0  0  0  0  0  0  0  0  0
  -23.1690  -24.5990    3.6790 Cl  0  0  0  0  0  0  0  0  0  0  0  0
  -21.8340  -23.2400    1.7790 C   0  0  0  0  0  0  0  0  0  0  0  0
  -21.8360  -19.8720    0.3960 C   0  0  0  0  0  0  0  0  0  0  0  0
  -22.2150  -19.9940   -0.7570 O   0  0  0  0  0  0  0  0  0  0  0  0
  -23.0640  -17.7100    3.0330 N   0  0  0  0  0  0  0  0  0  0  0  0
  -25.9250  -16.8140   -4.3540 Cl  0  0  0  0  0  0  0  0  0  0  0  0
  -21.9540  -16.9960   -1.2970 F   0  0  0  0  0  0  0  0  0  0  0  0
  -27.0616  -17.5973   -1.8916 H   0  0  0  0  0  0  0  0  0  0  0  0
  -20.4952  -20.4330    1.8481 H   0  0  0  0  0  0  0  0  0  0  0  0
  -26.0215  -18.0313    0.3147 H   0  0  0  0  0  0  0  0  0  0  0  0
  -23.2047  -16.5982   -3.5238 H   0  0  0  0  0  0  0  0  0  0  0  0
  -17.6265  -20.7040    2.1461 H   0  0  0  0  0  0  0  0  0  0  0  0
  -17.1336  -19.3647    1.0756 H   0  0  0  0  0  0  0  0  0  0  0  0
  -21.5340  -19.2466    3.2647 H   0  0  0  0  0  0  0  0  0  0  0  0
  -18.6119  -22.9604   -0.0931 H   0  0  0  0  0  0  0  0  0  0  0  0
  -18.8501  -22.3563    1.5807 H   0  0  0  0  0  0  0  0  0  0  0  0
  -20.5936  -21.6375   -0.8571 H   0  0  0  0  0  0  0  0  0  0  0  0
  -20.7493  -24.0621   -1.3271 H   0  0  0  0  0  0  0  0  0  0  0  0
  -21.7948  -26.2286   -0.6961 H   0  0  0  0  0  0  0  0  0  0  0  0
  -21.8738  -22.3874    2.4729 H   0  0  0  0  0  0  0  0  0  0  0  0
  -23.1201  -17.3824    4.0079 H   0  0  0  0  0  0  0  0  0  0  0  0
  1 12  2  0
  1 27  1  0
  2  3  2  0
  2  9  1  0
  2 28  1  0
  3  5  1  0
  4 16  1  0
  4 25  1  0
  5 11  2  0
  6 14  2  0
  7 12  1  0
  7 13  2  0
  7 25  1  0
  8  9  2  0
  8 11  1  0
  8 29  1  0
 10 14  1  0
 11 12  1  0
 13 27  1  0
 14 15  1  0
 16 15  1  0
 16 17  1  0
 17 18  2  0
 17 24  1  0
 18 19  1  0
 19 20  2  0
 20 21  1  0
 20 22  1  0
 22 23  1  0
 22 24  2  0
 25 26  2  0
  3 30  1  0
  4 31  1  0
  5 32  1  0
  9 33  1  0
 10 34  1  0
 10 35  1  0
 13 36  1  0
 15 37  1  0
 15 38  1  0
 16 39  1  6
 18 40  1  0
 19 41  1  0
 24 42  1  0
 27 43  1  0
M  END
>  <filename_input>  (26) 
8F8E_XJI_docked.sdf

>  <pdb_id>  (26) 
8F8E_XJI

>  <pose_rank>  (26) 
25

>  <num_atoms_heavy>  (26) 
29

>  <num_torsions>  (26) 
6

>  <pose>  (26) 
[-20.897, -20.663, 0.928, 1e-06, 1e-06, 1e-06, 0.0, 0.0, 0.0, 0.0, 0.0, 0.0]

>  <energy>  (26) 
-858.4499373704191

>  <inter_energy>  (26) 
-885.761688209923

>  <intra_energy>  (26) 
23.982546539089554

>  <rmsd>  (26) 
0.0

>  <sdf_rank>  (26) 
0

$$$$
