
     RDKit          3D

 42 45  0  0  0  0  0  0  0  0999 V2000
    0.4407    8.0486  -10.6431 C   0  0  0  0  0  0  0  0  0  0  0  0
   -0.2150    9.2774  -10.3732 C   0  0  0  0  0  0  0  0  0  0  0  0
    0.0560    9.9738   -9.1473 C   0  0  0  0  0  0  0  0  0  0  0  0
    0.9711    9.4101   -8.2067 C   0  0  0  0  0  0  0  0  0  0  0  0
    1.5800    8.1459   -8.4747 C   0  0  0  0  0  0  0  0  0  0  0  0
    1.0149   10.3740   -7.0716 C   0  0  0  0  0  0  0  0  0  0  0  0
   -1.2552   12.0734   -9.1076 C   0  0  0  0  0  0  0  0  0  0  0  0
   -2.2521   15.5868   -6.7159 C   0  0  0  0  0  0  0  0  0  0  0  0
   -2.8043   14.3109   -6.4049 C   0  0  0  0  0  0  0  0  0  0  0  0
    3.8111    9.8582   -7.0454 F   0  0  0  0  0  0  0  0  0  0  0  0
    3.1805   10.0441   -5.8592 C   0  0  0  0  0  0  0  0  0  0  0  0
    3.8946   10.0045   -4.7088 C   0  0  0  0  0  0  0  0  0  0  0  0
    3.2524   10.2184   -3.4525 C   0  0  0  0  0  0  0  0  0  0  0  0
    4.0409   10.1779   -2.2492 C   0  0  0  0  0  0  0  0  0  0  0  0
    3.6310   10.6742   -1.2123 O   0  0  0  0  0  0  0  0  0  0  0  0
    5.2685    9.6515   -2.2900 O   0  0  0  0  0  0  0  0  0  0  0  0
    1.8357   10.4720   -3.3974 C   0  0  0  0  0  0  0  0  0  0  0  0
    1.1028   10.5096   -4.5710 C   0  0  0  0  0  0  0  0  0  0  0  0
    1.7773   10.2793   -5.8290 C   0  0  0  0  0  0  0  0  0  0  0  0
    2.4641    7.6230   -7.6100 F   0  0  0  0  0  0  0  0  0  0  0  0
    1.2995    7.4756   -9.6807 C   0  0  0  0  0  0  0  0  0  0  0  0
    0.2590   11.3796   -7.3850 N   0  0  0  0  0  0  0  0  0  0  0  0
   -0.3764   11.1842   -8.5863 N   0  0  0  0  0  0  0  0  0  0  0  0
   -1.8238   11.8587  -10.1695 O   0  0  0  0  0  0  0  0  0  0  0  0
   -1.5914   13.3091   -8.3178 C   0  0  0  0  0  0  0  0  0  0  0  0
   -2.4948   13.1904   -7.1864 C   0  0  0  0  0  0  0  0  0  0  0  0
   -3.1771   11.6473   -6.7932 Cl  0  0  0  0  0  0  0  0  0  0  0  0
   -1.3296   15.7269   -7.7913 C   0  0  0  0  0  0  0  0  0  0  0  0
   -0.9613   14.5814   -8.5879 C   0  0  0  0  0  0  0  0  0  0  0  0
    0.0942   14.7308   -9.7040 C   0  0  1  0  0  0  0  0  0  0  0  0
    0.6279   15.9921   -9.6688 F   0  0  0  0  0  0  0  0  0  0  0  0
    1.1174   13.8267   -9.5141 F   0  0  0  0  0  0  0  0  0  0  0  0
   -0.4745   14.5044  -10.8983 F   0  0  0  0  0  0  0  0  0  0  0  0
    0.2793    7.5408  -11.6054 H   0  0  0  0  0  0  0  0  0  0  0  0
   -0.9277    9.6946  -11.0998 H   0  0  0  0  0  0  0  0  0  0  0  0
   -2.5396   16.4674   -6.1227 H   0  0  0  0  0  0  0  0  0  0  0  0
   -3.4799   14.2048   -5.5433 H   0  0  0  0  0  0  0  0  0  0  0  0
    4.9761    9.8063   -4.7432 H   0  0  0  0  0  0  0  0  0  0  0  0
    1.3396   10.6347   -2.4292 H   0  0  0  0  0  0  0  0  0  0  0  0
    0.0219   10.7121   -4.5469 H   0  0  0  0  0  0  0  0  0  0  0  0
    1.7552    6.4935   -9.8752 H   0  0  0  0  0  0  0  0  0  0  0  0
   -0.8958   16.7124   -8.0159 H   0  0  0  0  0  0  0  0  0  0  0  0
  1  2  2  0
  1 21  1  0
  2  3  1  0
  3  4  2  0
  3 23  1  0
  4  5  1  0
  4  6  1  0
  5 20  1  0
  5 21  2  0
  6 19  1  0
  6 22  2  0
  7 23  1  0
  7 24  2  0
  7 25  1  0
  8  9  2  0
  8 28  1  0
  9 26  1  0
 10 11  1  0
 11 12  2  0
 11 19  1  0
 12 13  1  0
 13 14  1  0
 13 17  2  0
 14 15  1  0
 14 16  2  0
 17 18  1  0
 18 19  2  0
 22 23  1  0
 25 26  2  0
 25 29  1  0
 26 27  1  0
 28 29  2  0
 29 30  1  0
 30 31  1  6
 30 32  1  0
 30 33  1  0
  1 34  1  0
  2 35  1  0
  8 36  1  0
  9 37  1  0
 12 38  1  0
 17 39  1  0
 18 40  1  0
 21 41  1  0
 28 42  1  0
M  CHG  1  15  -1
M  END
>  <filename_input>  (1) 
8FAV_4Y5_docked.sdf

>  <pdb_id>  (1) 
8FAV_4Y5

>  <pose_rank>  (1) 
0

>  <num_atoms_heavy>  (1) 
33

>  <num_torsions>  (1) 
4

>  <pose>  (1) 
[0.4407117229912312, 8.048582816005904, -10.64306134081747, -5.741536874434516, 2.278717480403905, -0.8752406244582523, -0.11548472238536749, 6.065084071605809, -0.061421733808317384, -0.35336116488500446]

>  <energy>  (1) 
-1253.6376511328372

>  <inter_energy>  (1) 
-1257.5800145942446

>  <intra_energy>  (1) 
28.27203312710277

>  <rmsd>  (1) 
0.28533

>  <sdf_rank>  (1) 
0

$$$$

     RDKit          3D

 42 45  0  0  0  0  0  0  0  0999 V2000
    0.4343    8.0039  -10.5323 C   0  0  0  0  0  0  0  0  0  0  0  0
   -0.2217    9.2491  -10.3533 C   0  0  0  0  0  0  0  0  0  0  0  0
    0.0606   10.0407   -9.1892 C   0  0  0  0  0  0  0  0  0  0  0  0
    0.9871    9.5546   -8.2170 C   0  0  0  0  0  0  0  0  0  0  0  0
    1.5963    8.2743   -8.3909 C   0  0  0  0  0  0  0  0  0  0  0  0
    1.0406   10.6053   -7.1621 C   0  0  0  0  0  0  0  0  0  0  0  0
   -1.2555   12.1347   -9.3014 C   0  0  0  0  0  0  0  0  0  0  0  0
   -2.1856   15.9500   -7.3947 C   0  0  0  0  0  0  0  0  0  0  0  0
   -1.2362   15.8753   -8.4542 C   0  0  0  0  0  0  0  0  0  0  0  0
    0.0338   11.7201   -4.7478 F   0  0  0  0  0  0  0  0  0  0  0  0
    1.2672   11.1564   -4.7303 C   0  0  0  0  0  0  0  0  0  0  0  0
    1.9682   11.1172   -3.5720 C   0  0  0  0  0  0  0  0  0  0  0  0
    3.2588   10.5098   -3.5292 C   0  0  0  0  0  0  0  0  0  0  0  0
    3.9744   10.4773   -2.2809 C   0  0  0  0  0  0  0  0  0  0  0  0
    3.3996   10.6699   -1.2217 O   0  0  0  0  0  0  0  0  0  0  0  0
    5.2995   10.3040   -2.2919 O   0  0  0  0  0  0  0  0  0  0  0  0
    3.8299    9.9381   -4.7214 C   0  0  0  0  0  0  0  0  0  0  0  0
    3.1173    9.9797   -5.9073 C   0  0  0  0  0  0  0  0  0  0  0  0
    1.8164   10.6105   -5.9243 C   0  0  0  0  0  0  0  0  0  0  0  0
    2.4909    7.8229   -7.4972 F   0  0  0  0  0  0  0  0  0  0  0  0
    1.3048    7.5102   -9.5371 C   0  0  0  0  0  0  0  0  0  0  0  0
    0.2788   11.5818   -7.5458 N   0  0  0  0  0  0  0  0  0  0  0  0
   -0.3688   11.2909   -8.7210 N   0  0  0  0  0  0  0  0  0  0  0  0
   -1.8347   11.8357  -10.3368 O   0  0  0  0  0  0  0  0  0  0  0  0
   -1.5864   13.4283   -8.6081 C   0  0  0  0  0  0  0  0  0  0  0  0
   -0.9287   14.6457   -9.0506 C   0  0  0  0  0  0  0  0  0  0  0  0
    0.2294   14.5747  -10.3370 Cl  0  0  0  0  0  0  0  0  0  0  0  0
   -2.8791   14.7818   -6.9685 C   0  0  0  0  0  0  0  0  0  0  0  0
   -2.6117   13.5086   -7.5928 C   0  0  0  0  0  0  0  0  0  0  0  0
   -3.4213   12.2635   -7.1728 C   0  0  1  0  0  0  0  0  0  0  0  0
   -2.5907   11.3529   -6.5747 F   0  0  0  0  0  0  0  0  0  0  0  0
   -4.3967   12.6155   -6.2646 F   0  0  0  0  0  0  0  0  0  0  0  0
   -4.0036   11.7170   -8.2514 F   0  0  0  0  0  0  0  0  0  0  0  0
    0.2639    7.4214  -11.4497 H   0  0  0  0  0  0  0  0  0  0  0  0
   -0.9431    9.6063  -11.1029 H   0  0  0  0  0  0  0  0  0  0  0  0
   -2.3837   16.9142   -6.9038 H   0  0  0  0  0  0  0  0  0  0  0  0
   -0.7402   16.7915   -8.8072 H   0  0  0  0  0  0  0  0  0  0  0  0
    1.5402   11.5564   -2.6588 H   0  0  0  0  0  0  0  0  0  0  0  0
    4.8257    9.4717   -4.6897 H   0  0  0  0  0  0  0  0  0  0  0  0
    3.5351    9.5388   -6.8244 H   0  0  0  0  0  0  0  0  0  0  0  0
    1.7609    6.5166   -9.6583 H   0  0  0  0  0  0  0  0  0  0  0  0
   -3.6217   14.8501   -6.1599 H   0  0  0  0  0  0  0  0  0  0  0  0
  1  2  2  0
  1 21  1  0
  2  3  1  0
  3  4  2  0
  3 23  1  0
  4  5  1  0
  4  6  1  0
  5 20  1  0
  5 21  2  0
  6 19  1  0
  6 22  2  0
  7 23  1  0
  7 24  2  0
  7 25  1  0
  8  9  2  0
  8 28  1  0
  9 26  1  0
 10 11  1  0
 11 12  2  0
 11 19  1  0
 12 13  1  0
 13 14  1  0
 13 17  2  0
 14 15  1  0
 14 16  2  0
 17 18  1  0
 18 19  2  0
 22 23  1  0
 25 26  2  0
 25 29  1  0
 26 27  1  0
 28 29  2  0
 29 30  1  0
 30 31  1  1
 30 32  1  0
 30 33  1  0
  1 34  1  0
  2 35  1  0
  8 36  1  0
  9 37  1  0
 12 38  1  0
 17 39  1  0
 18 40  1  0
 21 41  1  0
 28 42  1  0
M  CHG  1  15  -1
M  END
>  <filename_input>  (2) 
8FAV_4Y5_docked.sdf

>  <pdb_id>  (2) 
8FAV_4Y5

>  <pose_rank>  (2) 
1

>  <num_atoms_heavy>  (2) 
33

>  <num_torsions>  (2) 
4

>  <pose>  (2) 
[0.43429159952910745, 8.003941360605143, -10.532303502457673, 6.035093521413597, 0.8083984911810355, -1.3806644391895335, -3.3331738964913082, -2.3211422102185155, 2.815645515505587, -2.874068448325217]

>  <energy>  (2) 
-1183.277908282464

>  <inter_energy>  (2) 
-1212.072853541942

>  <intra_energy>  (2) 
39.75093862167742

>  <rmsd>  (2) 
2.6445

>  <sdf_rank>  (2) 
0

$$$$

     RDKit          3D

 42 45  0  0  0  0  0  0  0  0999 V2000
   -2.9814   14.8003   -6.5269 C   0  0  0  0  0  0  0  0  0  0  0  0
   -2.6769   13.9171   -7.5946 C   0  0  0  0  0  0  0  0  0  0  0  0
   -1.6288   12.9481   -7.4392 C   0  0  0  0  0  0  0  0  0  0  0  0
   -0.8943   12.8982   -6.2152 C   0  0  0  0  0  0  0  0  0  0  0  0
   -1.1821   13.8316   -5.1729 C   0  0  0  0  0  0  0  0  0  0  0  0
    0.0967   11.8002   -6.3937 C   0  0  0  0  0  0  0  0  0  0  0  0
   -1.4677   11.5979   -9.5080 C   0  0  0  0  0  0  0  0  0  0  0  0
    0.5401    8.2749  -11.5040 C   0  0  0  0  0  0  0  0  0  0  0  0
   -0.4374    8.0378  -10.4952 C   0  0  0  0  0  0  0  0  0  0  0  0
    2.4413   10.4406   -7.2538 F   0  0  0  0  0  0  0  0  0  0  0  0
    2.2867   10.6798   -5.9278 C   0  0  0  0  0  0  0  0  0  0  0  0
    3.2529   10.2918   -5.0612 C   0  0  0  0  0  0  0  0  0  0  0  0
    3.1177   10.5532   -3.6649 C   0  0  0  0  0  0  0  0  0  0  0  0
    4.1659   10.1354   -2.7714 C   0  0  0  0  0  0  0  0  0  0  0  0
    4.3556   10.7112   -1.7122 O   0  0  0  0  0  0  0  0  0  0  0  0
    4.9861    9.1480   -3.1431 O   0  0  0  0  0  0  0  0  0  0  0  0
    1.9475   11.2271   -3.1643 C   0  0  0  0  0  0  0  0  0  0  0  0
    0.9570   11.6217   -4.0470 C   0  0  0  0  0  0  0  0  0  0  0  0
    1.1151   11.3349   -5.4553 C   0  0  0  0  0  0  0  0  0  0  0  0
   -0.5170   13.7724   -4.0080 F   0  0  0  0  0  0  0  0  0  0  0  0
   -2.2110   14.7772   -5.3445 C   0  0  0  0  0  0  0  0  0  0  0  0
   -0.1149   11.2696   -7.5576 N   0  0  0  0  0  0  0  0  0  0  0  0
   -1.0972   11.9344   -8.2493 N   0  0  0  0  0  0  0  0  0  0  0  0
   -2.3302   12.2258  -10.1070 O   0  0  0  0  0  0  0  0  0  0  0  0
   -0.7417   10.4783  -10.2030 C   0  0  0  0  0  0  0  0  0  0  0  0
   -1.0658    9.1081   -9.8456 C   0  0  0  0  0  0  0  0  0  0  0  0
   -2.2512    8.7997   -8.6205 Cl  0  0  0  0  0  0  0  0  0  0  0  0
    0.8474    9.6055  -11.9072 C   0  0  0  0  0  0  0  0  0  0  0  0
    0.1856   10.7258  -11.2835 C   0  0  0  0  0  0  0  0  0  0  0  0
    0.4731   12.1591  -11.7789 C   0  0  1  0  0  0  0  0  0  0  0  0
    1.0188   12.8981  -10.7625 F   0  0  0  0  0  0  0  0  0  0  0  0
    1.3759   12.1295  -12.8201 F   0  0  0  0  0  0  0  0  0  0  0  0
   -0.6659   12.7287  -12.2025 F   0  0  0  0  0  0  0  0  0  0  0  0
   -3.8205   15.5053   -6.6209 H   0  0  0  0  0  0  0  0  0  0  0  0
   -3.2411   13.9744   -8.5371 H   0  0  0  0  0  0  0  0  0  0  0  0
    1.0597    7.4266  -11.9734 H   0  0  0  0  0  0  0  0  0  0  0  0
   -0.7011    7.0049  -10.2238 H   0  0  0  0  0  0  0  0  0  0  0  0
    4.1469    9.7722   -5.4361 H   0  0  0  0  0  0  0  0  0  0  0  0
    1.8415   11.4270   -2.0878 H   0  0  0  0  0  0  0  0  0  0  0  0
    0.0617   12.1463   -3.6820 H   0  0  0  0  0  0  0  0  0  0  0  0
   -2.4171   15.5068   -4.5474 H   0  0  0  0  0  0  0  0  0  0  0  0
    1.5924    9.7800  -12.6975 H   0  0  0  0  0  0  0  0  0  0  0  0
  1  2  2  0
  1 21  1  0
  2  3  1  0
  3  4  2  0
  3 23  1  0
  4  5  1  0
  4  6  1  0
  5 20  1  0
  5 21  2  0
  6 19  1  0
  6 22  2  0
  7 23  1  0
  7 24  2  0
  7 25  1  0
  8  9  2  0
  8 28  1  0
  9 26  1  0
 10 11  1  0
 11 12  2  0
 11 19  1  0
 12 13  1  0
 13 14  1  0
 13 17  2  0
 14 15  1  0
 14 16  2  0
 17 18  1  0
 18 19  2  0
 22 23  1  0
 25 26  2  0
 25 29  1  0
 26 27  1  0
 28 29  2  0
 29 30  1  0
 30 31  1  1
 30 32  1  0
 30 33  1  0
  1 34  1  0
  2 35  1  0
  8 36  1  0
  9 37  1  0
 12 38  1  0
 17 39  1  0
 18 40  1  0
 21 41  1  0
 28 42  1  0
M  CHG  1  15  -1
M  END
>  <filename_input>  (3) 
8FAV_4Y5_docked.sdf

>  <pdb_id>  (3) 
8FAV_4Y5

>  <pose_rank>  (3) 
2

>  <num_atoms_heavy>  (3) 
33

>  <num_torsions>  (3) 
4

>  <pose>  (3) 
[-2.9813512366504464, 14.800263698154376, -6.526878428185886, 2.06923941762548, -0.6567856967825502, 2.5885286860828414, -3.7123350007633387, -2.3853391963994572, -3.6845787713078084, -0.48943601191867436]

>  <energy>  (3) 
-908.6975425446029

>  <inter_energy>  (3) 
-979.148135998777

>  <intra_energy>  (3) 
62.87586136328146

>  <rmsd>  (3) 
4.48194

>  <sdf_rank>  (3) 
0

$$$$

     RDKit          3D

 42 45  0  0  0  0  0  0  0  0999 V2000
   -2.9104   14.5618   -7.0065 C   0  0  0  0  0  0  0  0  0  0  0  0
   -2.5556   13.5981   -7.9853 C   0  0  0  0  0  0  0  0  0  0  0  0
   -1.4531   12.7109   -7.7429 C   0  0  0  0  0  0  0  0  0  0  0  0
   -0.7165   12.8225   -6.5243 C   0  0  0  0  0  0  0  0  0  0  0  0
   -1.0576   13.8346   -5.5756 C   0  0  0  0  0  0  0  0  0  0  0  0
    0.3364   11.7713   -6.6013 C   0  0  0  0  0  0  0  0  0  0  0  0
   -1.2146   11.1777   -9.6720 C   0  0  0  0  0  0  0  0  0  0  0  0
    1.1777    7.9173  -11.3165 C   0  0  0  0  0  0  0  0  0  0  0  0
    1.7817    9.1556  -10.9545 C   0  0  0  0  0  0  0  0  0  0  0  0
   -0.2197   11.4592   -3.8303 F   0  0  0  0  0  0  0  0  0  0  0  0
    1.0572   11.2864   -4.2532 C   0  0  0  0  0  0  0  0  0  0  0  0
    2.0178   10.9493   -3.3595 C   0  0  0  0  0  0  0  0  0  0  0  0
    3.3630   10.7429   -3.7888 C   0  0  0  0  0  0  0  0  0  0  0  0
    4.3584   10.3776   -2.8156 C   0  0  0  0  0  0  0  0  0  0  0  0
    4.2802   10.7647   -1.6608 O   0  0  0  0  0  0  0  0  0  0  0  0
    5.4194    9.6633   -3.2029 O   0  0  0  0  0  0  0  0  0  0  0  0
    3.7118   10.8981   -5.1775 C   0  0  0  0  0  0  0  0  0  0  0  0
    2.7330   11.2458   -6.0924 C   0  0  0  0  0  0  0  0  0  0  0  0
    1.3804   11.4589   -5.6283 C   0  0  0  0  0  0  0  0  0  0  0  0
   -0.3899   13.9272   -4.4145 F   0  0  0  0  0  0  0  0  0  0  0  0
   -2.1397   14.6982   -5.8320 C   0  0  0  0  0  0  0  0  0  0  0  0
    0.1555   11.1189   -7.7071 N   0  0  0  0  0  0  0  0  0  0  0  0
   -0.8638   11.6556   -8.4541 N   0  0  0  0  0  0  0  0  0  0  0  0
   -2.1122   11.6936  -10.3240 O   0  0  0  0  0  0  0  0  0  0  0  0
   -0.4251   10.0396  -10.2596 C   0  0  0  0  0  0  0  0  0  0  0  0
    1.0064   10.2046  -10.4436 C   0  0  0  0  0  0  0  0  0  0  0  0
    1.7587   11.7037  -10.0101 Cl  0  0  0  0  0  0  0  0  0  0  0  0
   -0.2152    7.7096  -11.1070 C   0  0  0  0  0  0  0  0  0  0  0  0
   -1.0308    8.7587  -10.5445 C   0  0  0  0  0  0  0  0  0  0  0  0
   -2.5239    8.4973  -10.2544 C   0  0  1  0  0  0  0  0  0  0  0  0
   -3.1558    9.6821   -9.9825 F   0  0  0  0  0  0  0  0  0  0  0  0
   -3.1296    7.9312  -11.3558 F   0  0  0  0  0  0  0  0  0  0  0  0
   -2.6430    7.6617   -9.2110 F   0  0  0  0  0  0  0  0  0  0  0  0
   -3.7890   15.2048   -7.1634 H   0  0  0  0  0  0  0  0  0  0  0  0
   -3.1225   13.5310   -8.9256 H   0  0  0  0  0  0  0  0  0  0  0  0
    1.7900    7.1182  -11.7598 H   0  0  0  0  0  0  0  0  0  0  0  0
    2.8666    9.2894  -11.0771 H   0  0  0  0  0  0  0  0  0  0  0  0
    1.7593   10.8341   -2.2966 H   0  0  0  0  0  0  0  0  0  0  0  0
    4.7489   10.7414   -5.5088 H   0  0  0  0  0  0  0  0  0  0  0  0
    2.9809   11.3585   -7.1582 H   0  0  0  0  0  0  0  0  0  0  0  0
   -2.3875   15.4886   -5.1082 H   0  0  0  0  0  0  0  0  0  0  0  0
   -0.6716    6.7453  -11.3751 H   0  0  0  0  0  0  0  0  0  0  0  0
  1  2  2  0
  1 21  1  0
  2  3  1  0
  3  4  2  0
  3 23  1  0
  4  5  1  0
  4  6  1  0
  5 20  1  0
  5 21  2  0
  6 19  1  0
  6 22  2  0
  7 23  1  0
  7 24  2  0
  7 25  1  0
  8  9  2  0
  8 28  1  0
  9 26  1  0
 10 11  1  0
 11 12  2  0
 11 19  1  0
 12 13  1  0
 13 14  1  0
 13 17  2  0
 14 15  1  0
 14 16  2  0
 17 18  1  0
 18 19  2  0
 22 23  1  0
 25 26  2  0
 25 29  1  0
 26 27  1  0
 28 29  2  0
 29 30  1  0
 30 31  1  1
 30 32  1  0
 30 33  1  0
  1 34  1  0
  2 35  1  0
  8 36  1  0
  9 37  1  0
 12 38  1  0
 17 39  1  0
 18 40  1  0
 21 41  1  0
 28 42  1  0
M  CHG  1  15  -1
M  END
>  <filename_input>  (4) 
8FAV_4Y5_docked.sdf

>  <pdb_id>  (4) 
8FAV_4Y5

>  <pose_rank>  (4) 
3

>  <num_atoms_heavy>  (4) 
33

>  <num_torsions>  (4) 
4

>  <pose>  (4) 
[-2.9104228605255504, 14.561794260003698, -7.006467669519672, 2.096486032498836, -0.46798170148655105, 2.586610127073659, 0.21332082624043497, 3.03231790819975, -0.12022028535446747, 2.5685572296567534]

>  <energy>  (4) 
-671.6612027621092

>  <inter_energy>  (4) 
-782.3397008692816

>  <intra_energy>  (4) 
113.75491659794719

>  <rmsd>  (4) 
5.26431

>  <sdf_rank>  (4) 
0

$$$$

     RDKit          3D

 42 45  0  0  0  0  0  0  0  0999 V2000
   -4.4274   10.5106   -7.2218 C   0  0  0  0  0  0  0  0  0  0  0  0
   -3.7319   11.4567   -8.0180 C   0  0  0  0  0  0  0  0  0  0  0  0
   -2.3306   11.6785   -7.7976 C   0  0  0  0  0  0  0  0  0  0  0  0
   -1.6586   10.9544   -6.7660 C   0  0  0  0  0  0  0  0  0  0  0  0
   -2.3895   10.0455   -5.9412 C   0  0  0  0  0  0  0  0  0  0  0  0
   -0.2445   11.4211   -6.8125 C   0  0  0  0  0  0  0  0  0  0  0  0
   -1.5167   13.3605   -9.4216 C   0  0  0  0  0  0  0  0  0  0  0  0
    1.9282   15.5881  -10.9142 C   0  0  0  0  0  0  0  0  0  0  0  0
    1.6037   14.3052  -11.4418 C   0  0  0  0  0  0  0  0  0  0  0  0
    1.7697    9.6220   -7.7021 F   0  0  0  0  0  0  0  0  0  0  0  0
    1.8738   10.1362   -6.4514 C   0  0  0  0  0  0  0  0  0  0  0  0
    2.9344    9.8030   -5.6775 C   0  0  0  0  0  0  0  0  0  0  0  0
    3.0720   10.3501   -4.3667 C   0  0  0  0  0  0  0  0  0  0  0  0
    4.2147    9.9824   -3.5728 C   0  0  0  0  0  0  0  0  0  0  0  0
    5.0089    9.1429   -3.9653 O   0  0  0  0  0  0  0  0  0  0  0  0
    4.3659   10.5183   -2.3579 O   0  0  0  0  0  0  0  0  0  0  0  0
    2.0787   11.2577   -3.8529 C   0  0  0  0  0  0  0  0  0  0  0  0
    0.9920   11.5973   -4.6402 C   0  0  0  0  0  0  0  0  0  0  0  0
    0.8724   11.0201   -5.9605 C   0  0  0  0  0  0  0  0  0  0  0  0
   -1.7598    9.3386   -4.9891 F   0  0  0  0  0  0  0  0  0  0  0  0
   -3.7641    9.8434   -6.1697 C   0  0  0  0  0  0  0  0  0  0  0  0
   -0.1424   12.2572   -7.7981 N   0  0  0  0  0  0  0  0  0  0  0  0
   -1.3559   12.4893   -8.3969 N   0  0  0  0  0  0  0  0  0  0  0  0
   -2.6164   13.5633   -9.9181 O   0  0  0  0  0  0  0  0  0  0  0  0
   -0.3264   14.1480   -9.8977 C   0  0  0  0  0  0  0  0  0  0  0  0
    0.5075   13.5873  -10.9468 C   0  0  0  0  0  0  0  0  0  0  0  0
    0.1293   12.0280  -11.6003 Cl  0  0  0  0  0  0  0  0  0  0  0  0
    1.1048   16.1833   -9.9167 C   0  0  0  0  0  0  0  0  0  0  0  0
   -0.0542   15.4836   -9.4174 C   0  0  0  0  0  0  0  0  0  0  0  0
   -0.9799   16.1686   -8.3898 C   0  0  1  0  0  0  0  0  0  0  0  0
   -1.8411   15.2459   -7.8571 F   0  0  0  0  0  0  0  0  0  0  0  0
   -0.2341   16.7031   -7.3611 F   0  0  0  0  0  0  0  0  0  0  0  0
   -1.6704   17.1521   -8.9873 F   0  0  0  0  0  0  0  0  0  0  0  0
   -5.4870   10.2965   -7.4250 H   0  0  0  0  0  0  0  0  0  0  0  0
   -4.2637   12.0176   -8.8006 H   0  0  0  0  0  0  0  0  0  0  0  0
    2.8187   16.1211  -11.2789 H   0  0  0  0  0  0  0  0  0  0  0  0
    2.2196   13.8746  -12.2451 H   0  0  0  0  0  0  0  0  0  0  0  0
    3.6942    9.1066   -6.0618 H   0  0  0  0  0  0  0  0  0  0  0  0
    2.1828   11.6780   -2.8418 H   0  0  0  0  0  0  0  0  0  0  0  0
    0.2298   12.2968   -4.2664 H   0  0  0  0  0  0  0  0  0  0  0  0
   -4.3278    9.1573   -5.5205 H   0  0  0  0  0  0  0  0  0  0  0  0
    1.3533   17.1807   -9.5249 H   0  0  0  0  0  0  0  0  0  0  0  0
  1  2  2  0
  1 21  1  0
  2  3  1  0
  3  4  2  0
  3 23  1  0
  4  5  1  0
  4  6  1  0
  5 20  1  0
  5 21  2  0
  6 19  1  0
  6 22  2  0
  7 23  1  0
  7 24  2  0
  7 25  1  0
  8  9  2  0
  8 28  1  0
  9 26  1  0
 10 11  1  0
 11 12  2  0
 11 19  1  0
 12 13  1  0
 13 14  1  0
 13 17  2  0
 14 15  1  0
 14 16  2  0
 17 18  1  0
 18 19  2  0
 22 23  1  0
 25 26  2  0
 25 29  1  0
 26 27  1  0
 28 29  2  0
 29 30  1  0
 30 31  1  1
 30 32  1  0
 30 33  1  0
  1 34  1  0
  2 35  1  0
  8 36  1  0
  9 37  1  0
 12 38  1  0
 17 39  1  0
 18 40  1  0
 21 41  1  0
 28 42  1  0
M  CHG  1  15  -1
M  END
>  <filename_input>  (5) 
8FAV_4Y5_docked.sdf

>  <pdb_id>  (5) 
8FAV_4Y5

>  <pose_rank>  (5) 
4

>  <num_atoms_heavy>  (5) 
33

>  <num_torsions>  (5) 
4

>  <pose>  (5) 
[-4.4273925168727, 10.510644350813113, -7.221753411225099, -0.7548493149353178, 0.5070323818655242, -1.1320138283410983, 2.7850126533623554, -3.2465267804804236, 0.8427382812170566, -3.261484866204861]

>  <energy>  (5) 
-781.7242915584022

>  <inter_energy>  (5) 
-834.7338452231196

>  <intra_energy>  (5) 
40.05943498131125

>  <rmsd>  (5) 
3.48609

>  <sdf_rank>  (5) 
0

$$$$

     RDKit          3D

 42 45  0  0  0  0  0  0  0  0999 V2000
   -4.3435   10.4814   -6.7332 C   0  0  0  0  0  0  0  0  0  0  0  0
   -3.7194   11.4600   -7.5490 C   0  0  0  0  0  0  0  0  0  0  0  0
   -2.3350   11.7801   -7.3427 C   0  0  0  0  0  0  0  0  0  0  0  0
   -1.6085   11.1196   -6.3054 C   0  0  0  0  0  0  0  0  0  0  0  0
   -2.2703   10.1761   -5.4614 C   0  0  0  0  0  0  0  0  0  0  0  0
   -0.2298   11.6806   -6.3698 C   0  0  0  0  0  0  0  0  0  0  0  0
   -1.6484   13.4879   -8.9983 C   0  0  0  0  0  0  0  0  0  0  0  0
    1.6328   16.0406  -10.3307 C   0  0  0  0  0  0  0  0  0  0  0  0
    0.7057   16.4955   -9.3493 C   0  0  0  0  0  0  0  0  0  0  0  0
    0.3512   13.1559   -4.0095 F   0  0  0  0  0  0  0  0  0  0  0  0
    1.1602   12.1168   -4.3335 C   0  0  0  0  0  0  0  0  0  0  0  0
    2.1960   11.7971   -3.5214 C   0  0  0  0  0  0  0  0  0  0  0  0
    3.0457   10.6942   -3.8348 C   0  0  0  0  0  0  0  0  0  0  0  0
    4.1327   10.3756   -2.9470 C   0  0  0  0  0  0  0  0  0  0  0  0
    5.2423   10.1118   -3.3815 O   0  0  0  0  0  0  0  0  0  0  0  0
    3.9020   10.2989   -1.6330 O   0  0  0  0  0  0  0  0  0  0  0  0
    2.8118    9.9148   -5.0231 C   0  0  0  0  0  0  0  0  0  0  0  0
    1.7560   10.2412   -5.8567 C   0  0  0  0  0  0  0  0  0  0  0  0
    0.9174   11.3699   -5.5204 C   0  0  0  0  0  0  0  0  0  0  0  0
   -1.5876    9.5287   -4.5035 F   0  0  0  0  0  0  0  0  0  0  0  0
   -3.6294    9.8774   -5.6762 C   0  0  0  0  0  0  0  0  0  0  0  0
   -0.1914   12.5062   -7.3688 N   0  0  0  0  0  0  0  0  0  0  0  0
   -1.4218   12.6458   -7.9617 N   0  0  0  0  0  0  0  0  0  0  0  0
   -2.7626   13.6076   -9.4894 O   0  0  0  0  0  0  0  0  0  0  0  0
   -0.5176   14.3470   -9.4954 C   0  0  0  0  0  0  0  0  0  0  0  0
   -0.3556   15.6788   -8.9383 C   0  0  0  0  0  0  0  0  0  0  0  0
   -1.4736   16.2500   -7.7446 Cl  0  0  0  0  0  0  0  0  0  0  0  0
    1.5264   14.7243  -10.8630 C   0  0  0  0  0  0  0  0  0  0  0  0
    0.4669   13.8468  -10.4276 C   0  0  0  0  0  0  0  0  0  0  0  0
    0.4046   12.3983  -10.9569 C   0  0  1  0  0  0  0  0  0  0  0  0
    1.3724   12.2126  -11.9086 F   0  0  0  0  0  0  0  0  0  0  0  0
    0.6356   11.5074   -9.9307 F   0  0  0  0  0  0  0  0  0  0  0  0
   -0.8079   12.1592  -11.4801 F   0  0  0  0  0  0  0  0  0  0  0  0
   -5.3874   10.1925   -6.9251 H   0  0  0  0  0  0  0  0  0  0  0  0
   -4.2934   11.9711   -8.3359 H   0  0  0  0  0  0  0  0  0  0  0  0
    2.4341   16.7090  -10.6786 H   0  0  0  0  0  0  0  0  0  0  0  0
    0.8243   17.4971   -8.9104 H   0  0  0  0  0  0  0  0  0  0  0  0
    2.3835   12.3912   -2.6148 H   0  0  0  0  0  0  0  0  0  0  0  0
    3.4676    9.0659   -5.2666 H   0  0  0  0  0  0  0  0  0  0  0  0
    1.5578    9.6499   -6.7628 H   0  0  0  0  0  0  0  0  0  0  0  0
   -4.1407    9.1648   -5.0124 H   0  0  0  0  0  0  0  0  0  0  0  0
    2.2550   14.3749  -11.6094 H   0  0  0  0  0  0  0  0  0  0  0  0
  1  2  2  0
  1 21  1  0
  2  3  1  0
  3  4  2  0
  3 23  1  0
  4  5  1  0
  4  6  1  0
  5 20  1  0
  5 21  2  0
  6 19  1  0
  6 22  2  0
  7 23  1  0
  7 24  2  0
  7 25  1  0
  8  9  2  0
  8 28  1  0
  9 26  1  0
 10 11  1  0
 11 12  2  0
 11 19  1  0
 12 13  1  0
 13 14  1  0
 13 17  2  0
 14 15  1  0
 14 16  2  0
 17 18  1  0
 18 19  2  0
 22 23  1  0
 25 26  2  0
 25 29  1  0
 26 27  1  0
 28 29  2  0
 29 30  1  0
 30 31  1  6
 30 32  1  0
 30 33  1  0
  1 34  1  0
  2 35  1  0
  8 36  1  0
  9 37  1  0
 12 38  1  0
 17 39  1  0
 18 40  1  0
 21 41  1  0
 28 42  1  0
M  CHG  1  15  -1
M  END
>  <filename_input>  (6) 
8FAV_4Y5_docked.sdf

>  <pdb_id>  (6) 
8FAV_4Y5

>  <pose_rank>  (6) 
5

>  <num_atoms_heavy>  (6) 
33

>  <num_torsions>  (6) 
4

>  <pose>  (6) 
[-4.343548595937171, 10.481414004692793, -6.733198660968598, -0.7842547030017847, 0.4756470393162081, -1.071286441288579, -0.3882813666589099, 5.869129775748566, -2.557810308088835, 0.7450589737111807]

>  <energy>  (6) 
-838.888789473139

>  <inter_energy>  (6) 
-832.785994765755

>  <intra_energy>  (6) 
19.996023548656627

>  <rmsd>  (6) 
3.55742

>  <sdf_rank>  (6) 
0

$$$$

     RDKit          3D

 42 45  0  0  0  0  0  0  0  0999 V2000
   -4.5955   13.5906   -6.7756 C   0  0  0  0  0  0  0  0  0  0  0  0
   -3.5769   12.6192   -6.5978 C   0  0  0  0  0  0  0  0  0  0  0  0
   -2.3052   12.7964   -7.2402 C   0  0  0  0  0  0  0  0  0  0  0  0
   -2.0885   13.9422   -8.0649 C   0  0  0  0  0  0  0  0  0  0  0  0
   -3.1452   14.8807   -8.2728 C   0  0  0  0  0  0  0  0  0  0  0  0
   -0.6907   13.8115   -8.5636 C   0  0  0  0  0  0  0  0  0  0  0  0
   -0.8245   10.9089   -6.6286 C   0  0  0  0  0  0  0  0  0  0  0  0
    3.1335    9.1090   -7.0186 C   0  0  0  0  0  0  0  0  0  0  0  0
    2.7344    9.7398   -5.8052 C   0  0  0  0  0  0  0  0  0  0  0  0
    0.1758   12.9804  -11.1412 F   0  0  0  0  0  0  0  0  0  0  0  0
    0.4342   14.2548  -10.7561 C   0  0  0  0  0  0  0  0  0  0  0  0
    1.0682   15.0954  -11.6082 C   0  0  0  0  0  0  0  0  0  0  0  0
    1.3302   16.4459  -11.2289 C   0  0  0  0  0  0  0  0  0  0  0  0
    1.9985   17.3160  -12.1604 C   0  0  0  0  0  0  0  0  0  0  0  0
    1.9355   18.5292  -12.0434 O   0  0  0  0  0  0  0  0  0  0  0  0
    2.6365   16.7852  -13.2078 O   0  0  0  0  0  0  0  0  0  0  0  0
    0.9276   16.9248   -9.9316 C   0  0  0  0  0  0  0  0  0  0  0  0
    0.2826   16.0671   -9.0573 C   0  0  0  0  0  0  0  0  0  0  0  0
    0.0390   14.7011   -9.4638 C   0  0  0  0  0  0  0  0  0  0  0  0
   -2.9408   15.9759   -9.0221 F   0  0  0  0  0  0  0  0  0  0  0  0
   -4.3870   14.6886   -7.6375 C   0  0  0  0  0  0  0  0  0  0  0  0
   -0.1816   12.7490   -8.0223 N   0  0  0  0  0  0  0  0  0  0  0  0
   -1.1031   12.0745   -7.2600 N   0  0  0  0  0  0  0  0  0  0  0  0
   -1.6752   10.3192   -5.9762 O   0  0  0  0  0  0  0  0  0  0  0  0
    0.5380   10.2956   -6.8056 C   0  0  0  0  0  0  0  0  0  0  0  0
    1.4696   10.3312   -5.6916 C   0  0  0  0  0  0  0  0  0  0  0  0
    1.0027   11.0947   -4.2082 Cl  0  0  0  0  0  0  0  0  0  0  0  0
    2.2271    9.0193   -8.1129 C   0  0  0  0  0  0  0  0  0  0  0  0
    0.9032    9.5841   -8.0092 C   0  0  0  0  0  0  0  0  0  0  0  0
   -0.0951    9.4171   -9.1744 C   0  0  1  0  0  0  0  0  0  0  0  0
    0.2343    8.3089   -9.9094 F   0  0  0  0  0  0  0  0  0  0  0  0
   -1.3718    9.2429   -8.6846 F   0  0  0  0  0  0  0  0  0  0  0  0
   -0.0697   10.5102   -9.9526 F   0  0  0  0  0  0  0  0  0  0  0  0
   -5.5508   13.4877   -6.2400 H   0  0  0  0  0  0  0  0  0  0  0  0
   -3.7607   11.7343   -5.9707 H   0  0  0  0  0  0  0  0  0  0  0  0
    4.1462    8.6895   -7.1104 H   0  0  0  0  0  0  0  0  0  0  0  0
    3.4256    9.7627   -4.9498 H   0  0  0  0  0  0  0  0  0  0  0  0
    1.3829   14.7349  -12.5987 H   0  0  0  0  0  0  0  0  0  0  0  0
    1.1313   17.9650   -9.6375 H   0  0  0  0  0  0  0  0  0  0  0  0
   -0.0403   16.4199   -8.0668 H   0  0  0  0  0  0  0  0  0  0  0  0
   -5.2045   15.4029   -7.8151 H   0  0  0  0  0  0  0  0  0  0  0  0
    2.5372    8.5174   -9.0413 H   0  0  0  0  0  0  0  0  0  0  0  0
  1  2  2  0
  1 21  1  0
  2  3  1  0
  3  4  2  0
  3 23  1  0
  4  5  1  0
  4  6  1  0
  5 20  1  0
  5 21  2  0
  6 19  1  0
  6 22  2  0
  7 23  1  0
  7 24  2  0
  7 25  1  0
  8  9  2  0
  8 28  1  0
  9 26  1  0
 10 11  1  0
 11 12  2  0
 11 19  1  0
 12 13  1  0
 13 14  1  0
 13 17  2  0
 14 15  1  0
 14 16  2  0
 17 18  1  0
 18 19  2  0
 22 23  1  0
 25 26  2  0
 25 29  1  0
 26 27  1  0
 28 29  2  0
 29 30  1  0
 30 31  1  6
 30 32  1  0
 30 33  1  0
  1 34  1  0
  2 35  1  0
  8 36  1  0
  9 37  1  0
 12 38  1  0
 17 39  1  0
 18 40  1  0
 21 41  1  0
 28 42  1  0
M  CHG  1  15  -1
M  END
>  <filename_input>  (7) 
8FAV_4Y5_docked.sdf

>  <pdb_id>  (7) 
8FAV_4Y5

>  <pose_rank>  (7) 
6

>  <num_atoms_heavy>  (7) 
33

>  <num_torsions>  (7) 
4

>  <pose>  (7) 
[-4.595473477116746, 13.590603542352646, -6.775625300038805, -2.6108107699720207, -1.9415276026930173, -0.7903449680983907, 3.1003431069838694, 0.1107911277916392, -2.9739756472976184, -0.36672986105125915]

>  <energy>  (7) 
-687.0209837483816

>  <inter_energy>  (7) 
-711.5200228841193

>  <intra_energy>  (7) 
32.521914445386685

>  <rmsd>  (7) 
7.38151

>  <sdf_rank>  (7) 
0

$$$$

     RDKit          3D

 42 45  0  0  0  0  0  0  0  0999 V2000
   -3.8032   13.6373   -6.4414 C   0  0  0  0  0  0  0  0  0  0  0  0
   -2.9343   12.5169   -6.4900 C   0  0  0  0  0  0  0  0  0  0  0  0
   -1.7581   12.5642   -7.3120 C   0  0  0  0  0  0  0  0  0  0  0  0
   -1.4875   13.7348   -8.0843 C   0  0  0  0  0  0  0  0  0  0  0  0
   -2.4033   14.8310   -8.0614 C   0  0  0  0  0  0  0  0  0  0  0  0
   -0.2154   13.4477   -8.8047 C   0  0  0  0  0  0  0  0  0  0  0  0
   -0.5179   10.4357   -7.0657 C   0  0  0  0  0  0  0  0  0  0  0  0
    2.9564    8.1718   -8.4303 C   0  0  0  0  0  0  0  0  0  0  0  0
    1.7678    8.2282   -9.2137 C   0  0  0  0  0  0  0  0  0  0  0  0
   -0.1269   12.8828  -11.5900 F   0  0  0  0  0  0  0  0  0  0  0  0
    0.5052   13.9948  -11.1392 C   0  0  0  0  0  0  0  0  0  0  0  0
    1.1331   14.8104  -12.0197 C   0  0  0  0  0  0  0  0  0  0  0  0
    1.7858   15.9959  -11.5669 C   0  0  0  0  0  0  0  0  0  0  0  0
    2.4369   16.8456  -12.5288 C   0  0  0  0  0  0  0  0  0  0  0  0
    3.6457   16.8005  -12.6909 O   0  0  0  0  0  0  0  0  0  0  0  0
    1.7130   17.7456  -13.2011 O   0  0  0  0  0  0  0  0  0  0  0  0
    1.7876   16.3316  -10.1662 C   0  0  0  0  0  0  0  0  0  0  0  0
    1.1497   15.4982   -9.2638 C   0  0  0  0  0  0  0  0  0  0  0  0
    0.5052   14.2983   -9.7488 C   0  0  0  0  0  0  0  0  0  0  0  0
   -2.1416   15.9469   -8.7607 F   0  0  0  0  0  0  0  0  0  0  0  0
   -3.5535   14.7654   -7.2521 C   0  0  0  0  0  0  0  0  0  0  0  0
    0.1946   12.2792   -8.4206 N   0  0  0  0  0  0  0  0  0  0  0  0
   -0.6997   11.6805   -7.5681 N   0  0  0  0  0  0  0  0  0  0  0  0
   -1.3458    9.9201   -6.3271 O   0  0  0  0  0  0  0  0  0  0  0  0
    0.6912    9.6498   -7.4949 C   0  0  0  0  0  0  0  0  0  0  0  0
    0.6499    8.9418   -8.7626 C   0  0  0  0  0  0  0  0  0  0  0  0
   -0.7870    8.9979   -9.7288 Cl  0  0  0  0  0  0  0  0  0  0  0  0
    3.0431    8.8911   -7.2046 C   0  0  0  0  0  0  0  0  0  0  0  0
    1.9208    9.6675   -6.7357 C   0  0  0  0  0  0  0  0  0  0  0  0
    2.0515   10.5011   -5.4433 C   0  0  1  0  0  0  0  0  0  0  0  0
    1.1441   10.0607   -4.5162 F   0  0  0  0  0  0  0  0  0  0  0  0
    3.3144   10.3558   -4.9102 F   0  0  0  0  0  0  0  0  0  0  0  0
    1.8380   11.7975   -5.7171 F   0  0  0  0  0  0  0  0  0  0  0  0
   -4.6742   13.6269   -5.7697 H   0  0  0  0  0  0  0  0  0  0  0  0
   -3.1607   11.6161   -5.9007 H   0  0  0  0  0  0  0  0  0  0  0  0
    3.8106    7.5700   -8.7738 H   0  0  0  0  0  0  0  0  0  0  0  0
    1.7276    7.7069  -10.1814 H   0  0  0  0  0  0  0  0  0  0  0  0
    1.1399   14.5575  -13.0902 H   0  0  0  0  0  0  0  0  0  0  0  0
    2.2925   17.2440   -9.8161 H   0  0  0  0  0  0  0  0  0  0  0  0
    1.1334   15.7454   -8.1920 H   0  0  0  0  0  0  0  0  0  0  0  0
   -4.2662   15.6033   -7.2516 H   0  0  0  0  0  0  0  0  0  0  0  0
    3.9696    8.8549   -6.6127 H   0  0  0  0  0  0  0  0  0  0  0  0
  1  2  2  0
  1 21  1  0
  2  3  1  0
  3  4  2  0
  3 23  1  0
  4  5  1  0
  4  6  1  0
  5 20  1  0
  5 21  2  0
  6 19  1  0
  6 22  2  0
  7 23  1  0
  7 24  2  0
  7 25  1  0
  8  9  2  0
  8 28  1  0
  9 26  1  0
 10 11  1  0
 11 12  2  0
 11 19  1  0
 12 13  1  0
 13 14  1  0
 13 17  2  0
 14 15  1  0
 14 16  2  0
 17 18  1  0
 18 19  2  0
 22 23  1  0
 25 26  2  0
 25 29  1  0
 26 27  1  0
 28 29  2  0
 29 30  1  0
 30 31  1  1
 30 32  1  0
 30 33  1  0
  1 34  1  0
  2 35  1  0
  8 36  1  0
  9 37  1  0
 12 38  1  0
 17 39  1  0
 18 40  1  0
 21 41  1  0
 28 42  1  0
M  CHG  1  15  -1
M  END
>  <filename_input>  (8) 
8FAV_4Y5_docked.sdf

>  <pdb_id>  (8) 
8FAV_4Y5

>  <pose_rank>  (8) 
7

>  <num_atoms_heavy>  (8) 
33

>  <num_torsions>  (8) 
4

>  <pose>  (8) 
[-3.8031686130826823, 13.637327480484762, -6.441366696732393, -2.707130396536504, -1.6609715091558934, -0.6099545049961199, -6.492087881796088, 3.890439647400873, -2.8496437269163, 1.3683836621524819]

>  <energy>  (8) 
-743.2303486362692

>  <inter_energy>  (8) 
-725.1891294717617

>  <intra_energy>  (8) 
13.27724629695368

>  <rmsd>  (8) 
7.53904

>  <sdf_rank>  (8) 
0

$$$$

     RDKit          3D

 42 45  0  0  0  0  0  0  0  0999 V2000
    2.1777   10.3400   -4.7682 C   0  0  0  0  0  0  0  0  0  0  0  0
    1.1749   11.3068   -5.0373 C   0  0  0  0  0  0  0  0  0  0  0  0
    0.5092   11.3058   -6.3095 C   0  0  0  0  0  0  0  0  0  0  0  0
    0.8787   10.3401   -7.2948 C   0  0  0  0  0  0  0  0  0  0  0  0
    1.9278    9.4095   -7.0223 C   0  0  0  0  0  0  0  0  0  0  0  0
    0.0070   10.6211   -8.4699 C   0  0  0  0  0  0  0  0  0  0  0  0
   -1.1818   13.1139   -6.3344 C   0  0  0  0  0  0  0  0  0  0  0  0
   -4.3255   15.1359   -8.5896 C   0  0  0  0  0  0  0  0  0  0  0  0
   -4.6390   14.3500   -7.4435 C   0  0  0  0  0  0  0  0  0  0  0  0
    0.0930   12.0468  -10.9286 F   0  0  0  0  0  0  0  0  0  0  0  0
    0.0506   10.6919  -10.9722 C   0  0  0  0  0  0  0  0  0  0  0  0
    0.0751   10.0603  -12.1702 C   0  0  0  0  0  0  0  0  0  0  0  0
    0.0522    8.6350  -12.2357 C   0  0  0  0  0  0  0  0  0  0  0  0
    0.0876    7.9942  -13.5239 C   0  0  0  0  0  0  0  0  0  0  0  0
    1.0285    8.1609  -14.2831 O   0  0  0  0  0  0  0  0  0  0  0  0
   -0.9597    7.2644  -13.9195 O   0  0  0  0  0  0  0  0  0  0  0  0
   -0.0041    7.8554  -11.0259 C   0  0  0  0  0  0  0  0  0  0  0  0
   -0.0327    8.4981   -9.8004 C   0  0  0  0  0  0  0  0  0  0  0  0
   -0.0189    9.9435   -9.7638 C   0  0  0  0  0  0  0  0  0  0  0  0
    2.2610    8.4793   -7.9313 F   0  0  0  0  0  0  0  0  0  0  0  0
    2.5718    9.4276   -5.7704 C   0  0  0  0  0  0  0  0  0  0  0  0
   -0.7909   11.5886   -8.1406 N   0  0  0  0  0  0  0  0  0  0  0  0
   -0.5147   12.0716   -6.8854 N   0  0  0  0  0  0  0  0  0  0  0  0
   -0.8954   13.5367   -5.2226 O   0  0  0  0  0  0  0  0  0  0  0  0
   -2.2405   13.8086   -7.1469 C   0  0  0  0  0  0  0  0  0  0  0  0
   -3.6281   13.6890   -6.7340 C   0  0  0  0  0  0  0  0  0  0  0  0
   -4.0291   12.7369   -5.3434 Cl  0  0  0  0  0  0  0  0  0  0  0  0
   -2.9710   15.3081   -8.9933 C   0  0  0  0  0  0  0  0  0  0  0  0
   -1.9058   14.6719   -8.2566 C   0  0  0  0  0  0  0  0  0  0  0  0
   -0.4375   14.9245   -8.6594 C   0  0  1  0  0  0  0  0  0  0  0  0
   -0.0514   16.1702   -8.2399 F   0  0  0  0  0  0  0  0  0  0  0  0
    0.3860   13.9958   -8.0599 F   0  0  0  0  0  0  0  0  0  0  0  0
   -0.3103   14.8273   -9.9919 F   0  0  0  0  0  0  0  0  0  0  0  0
    2.6496   10.3014   -3.7754 H   0  0  0  0  0  0  0  0  0  0  0  0
    0.9086   12.0536   -4.2749 H   0  0  0  0  0  0  0  0  0  0  0  0
   -5.1332   15.6117   -9.1651 H   0  0  0  0  0  0  0  0  0  0  0  0
   -5.6844   14.2613   -7.1127 H   0  0  0  0  0  0  0  0  0  0  0  0
    0.1130   10.6496  -13.0982 H   0  0  0  0  0  0  0  0  0  0  0  0
   -0.0241    6.7567  -11.0756 H   0  0  0  0  0  0  0  0  0  0  0  0
   -0.0656    7.9172   -8.8669 H   0  0  0  0  0  0  0  0  0  0  0  0
    3.3920    8.7223   -5.5710 H   0  0  0  0  0  0  0  0  0  0  0  0
   -2.7356   15.9288   -9.8704 H   0  0  0  0  0  0  0  0  0  0  0  0
  1  2  2  0
  1 21  1  0
  2  3  1  0
  3  4  2  0
  3 23  1  0
  4  5  1  0
  4  6  1  0
  5 20  1  0
  5 21  2  0
  6 19  1  0
  6 22  2  0
  7 23  1  0
  7 24  2  0
  7 25  1  0
  8  9  2  0
  8 28  1  0
  9 26  1  0
 10 11  1  0
 11 12  2  0
 11 19  1  0
 12 13  1  0
 13 14  1  0
 13 17  2  0
 14 15  1  0
 14 16  2  0
 17 18  1  0
 18 19  2  0
 22 23  1  0
 25 26  2  0
 25 29  1  0
 26 27  1  0
 28 29  2  0
 29 30  1  0
 30 31  1  1
 30 32  1  0
 30 33  1  0
  1 34  1  0
  2 35  1  0
  8 36  1  0
  9 37  1  0
 12 38  1  0
 17 39  1  0
 18 40  1  0
 21 41  1  0
 28 42  1  0
M  CHG  1  15  -1
M  END
>  <filename_input>  (9) 
8FAV_4Y5_docked.sdf

>  <pdb_id>  (9) 
8FAV_4Y5

>  <pose_rank>  (9) 
8

>  <num_atoms_heavy>  (9) 
33

>  <num_torsions>  (9) 
4

>  <pose>  (9) 
[2.177728400748493, 10.340016384512266, -4.768235485615026, -1.8292674227362062, 2.3966460852799365, -0.011381318618135242, 9.459013552333722, 1.0006034026505937, 3.050444943364097, -2.1151619953161718]

>  <energy>  (9) 
-589.685159471724

>  <inter_energy>  (9) 
-669.5229047451759

>  <intra_energy>  (9) 
85.50402477938796

>  <rmsd>  (9) 
5.64042

>  <sdf_rank>  (9) 
0

$$$$

     RDKit          3D

 42 45  0  0  0  0  0  0  0  0999 V2000
   -2.6859   14.3560   -6.1283 C   0  0  0  0  0  0  0  0  0  0  0  0
   -1.5404   13.7605   -5.5401 C   0  0  0  0  0  0  0  0  0  0  0  0
   -0.9084   12.6445   -6.1855 C   0  0  0  0  0  0  0  0  0  0  0  0
   -1.4531   12.1374   -7.4045 C   0  0  0  0  0  0  0  0  0  0  0  0
   -2.6380   12.7183   -7.9516 C   0  0  0  0  0  0  0  0  0  0  0  0
   -0.5689   11.0020   -7.7902 C   0  0  0  0  0  0  0  0  0  0  0  0
    1.0610   11.9542   -4.8536 C   0  0  0  0  0  0  0  0  0  0  0  0
    4.4553    9.2203   -4.6045 C   0  0  0  0  0  0  0  0  0  0  0  0
    4.3585   10.1699   -5.6620 C   0  0  0  0  0  0  0  0  0  0  0  0
   -0.2979   11.9492  -10.4576 F   0  0  0  0  0  0  0  0  0  0  0  0
   -0.5150   10.6244  -10.2647 C   0  0  0  0  0  0  0  0  0  0  0  0
   -0.5715    9.7936  -11.3330 C   0  0  0  0  0  0  0  0  0  0  0  0
   -0.7784    8.3937  -11.1489 C   0  0  0  0  0  0  0  0  0  0  0  0
   -0.8253    7.5366  -12.3041 C   0  0  0  0  0  0  0  0  0  0  0  0
   -0.0061    7.6467  -13.2020 O   0  0  0  0  0  0  0  0  0  0  0  0
   -1.8241    6.6569  -12.4248 O   0  0  0  0  0  0  0  0  0  0  0  0
   -0.9357    7.8532   -9.8232 C   0  0  0  0  0  0  0  0  0  0  0  0
   -0.8818    8.7003   -8.7298 C   0  0  0  0  0  0  0  0  0  0  0  0
   -0.6813   10.1157   -8.9461 C   0  0  0  0  0  0  0  0  0  0  0  0
   -3.1395   12.2673   -9.1126 F   0  0  0  0  0  0  0  0  0  0  0  0
   -3.2462   13.8099   -7.3030 C   0  0  0  0  0  0  0  0  0  0  0  0
    0.3860   10.9373   -6.9156 N   0  0  0  0  0  0  0  0  0  0  0  0
    0.2184   11.8566   -5.9097 N   0  0  0  0  0  0  0  0  0  0  0  0
    0.8706   12.7684   -3.9604 O   0  0  0  0  0  0  0  0  0  0  0  0
    2.2058   10.9837   -4.7468 C   0  0  0  0  0  0  0  0  0  0  0  0
    3.2584   11.0329   -5.7468 C   0  0  0  0  0  0  0  0  0  0  0  0
    3.1578   12.1803   -7.0408 Cl  0  0  0  0  0  0  0  0  0  0  0  0
    3.4622    9.1774   -3.5851 C   0  0  0  0  0  0  0  0  0  0  0  0
    2.3389   10.0822   -3.6252 C   0  0  0  0  0  0  0  0  0  0  0  0
    1.3077   10.0759   -2.4768 C   0  0  1  0  0  0  0  0  0  0  0  0
    0.0399   10.0451   -2.9948 F   0  0  0  0  0  0  0  0  0  0  0  0
    1.4778    8.9554   -1.6920 F   0  0  0  0  0  0  0  0  0  0  0  0
    1.4687   11.1710   -1.7177 F   0  0  0  0  0  0  0  0  0  0  0  0
   -3.1389   15.2462   -5.6674 H   0  0  0  0  0  0  0  0  0  0  0  0
   -1.1384   14.1521   -4.5941 H   0  0  0  0  0  0  0  0  0  0  0  0
    5.3008    8.5172   -4.5754 H   0  0  0  0  0  0  0  0  0  0  0  0
    5.1549   10.2261   -6.4187 H   0  0  0  0  0  0  0  0  0  0  0  0
   -0.4572   10.2004  -12.3486 H   0  0  0  0  0  0  0  0  0  0  0  0
   -1.0975    6.7745   -9.6805 H   0  0  0  0  0  0  0  0  0  0  0  0
   -0.9901    8.3020   -7.7102 H   0  0  0  0  0  0  0  0  0  0  0  0
   -4.1692   14.2424   -7.7167 H   0  0  0  0  0  0  0  0  0  0  0  0
    3.5517    8.4514   -2.7635 H   0  0  0  0  0  0  0  0  0  0  0  0
  1  2  2  0
  1 21  1  0
  2  3  1  0
  3  4  2  0
  3 23  1  0
  4  5  1  0
  4  6  1  0
  5 20  1  0
  5 21  2  0
  6 19  1  0
  6 22  2  0
  7 23  1  0
  7 24  2  0
  7 25  1  0
  8  9  2  0
  8 28  1  0
  9 26  1  0
 10 11  1  0
 11 12  2  0
 11 19  1  0
 12 13  1  0
 13 14  1  0
 13 17  2  0
 14 15  1  0
 14 16  2  0
 17 18  1  0
 18 19  2  0
 22 23  1  0
 25 26  2  0
 25 29  1  0
 26 27  1  0
 28 29  2  0
 29 30  1  0
 30 31  1  6
 30 32  1  0
 30 33  1  0
  1 34  1  0
  2 35  1  0
  8 36  1  0
  9 37  1  0
 12 38  1  0
 17 39  1  0
 18 40  1  0
 21 41  1  0
 28 42  1  0
M  CHG  1  15  -1
M  END
>  <filename_input>  (10) 
8FAV_4Y5_docked.sdf

>  <pdb_id>  (10) 
8FAV_4Y5

>  <pose_rank>  (10) 
9

>  <num_atoms_heavy>  (10) 
33

>  <num_torsions>  (10) 
4

>  <pose>  (10) 
[-2.685935831319786, 14.3559998584244, -6.128315594222605, -2.6875771572151894, -2.2652608364827147, 1.8002503611294498, 2.3646122130919305, -2.626074685010346, 0.16491310796968878, 3.897931822021574]

>  <energy>  (10) 
-643.2211285915694

>  <inter_energy>  (10) 
-680.1082781887396

>  <intra_energy>  (10) 
48.98063980161145

>  <rmsd>  (10) 
7.61253

>  <sdf_rank>  (10) 
0

$$$$

     RDKit          3D

 42 45  0  0  0  0  0  0  0  0999 V2000
   -2.1463   15.1524   -6.7122 C   0  0  0  0  0  0  0  0  0  0  0  0
   -1.3954   14.3453   -5.8193 C   0  0  0  0  0  0  0  0  0  0  0  0
   -0.9097   13.0660   -6.2540 C   0  0  0  0  0  0  0  0  0  0  0  0
   -1.2046   12.6154   -7.5769 C   0  0  0  0  0  0  0  0  0  0  0  0
   -2.0071   13.4208   -8.4418 C   0  0  0  0  0  0  0  0  0  0  0  0
   -0.5616   11.2763   -7.6907 C   0  0  0  0  0  0  0  0  0  0  0  0
    0.3761   12.0249   -4.4124 C   0  0  0  0  0  0  0  0  0  0  0  0
    2.5699    8.4544   -3.1889 C   0  0  0  0  0  0  0  0  0  0  0  0
    1.1463    8.4867   -3.1477 C   0  0  0  0  0  0  0  0  0  0  0  0
    0.4413   12.0243  -10.2441 F   0  0  0  0  0  0  0  0  0  0  0  0
   -0.0341   10.7643  -10.0841 C   0  0  0  0  0  0  0  0  0  0  0  0
    0.0037    9.8980  -11.1247 C   0  0  0  0  0  0  0  0  0  0  0  0
   -0.4727    8.5619  -10.9697 C   0  0  0  0  0  0  0  0  0  0  0  0
   -0.4111    7.6637  -12.0926 C   0  0  0  0  0  0  0  0  0  0  0  0
   -0.4814    6.4554  -11.9355 O   0  0  0  0  0  0  0  0  0  0  0  0
   -0.2024    8.1602  -13.3156 O   0  0  0  0  0  0  0  0  0  0  0  0
   -1.0047    8.1250   -9.7046 C   0  0  0  0  0  0  0  0  0  0  0  0
   -1.0478    9.0090   -8.6404 C   0  0  0  0  0  0  0  0  0  0  0  0
   -0.5679   10.3598   -8.8284 C   0  0  0  0  0  0  0  0  0  0  0  0
   -2.2639   13.0186   -9.6967 F   0  0  0  0  0  0  0  0  0  0  0  0
   -2.4777   14.6711   -7.9969 C   0  0  0  0  0  0  0  0  0  0  0  0
    0.0660   11.0497   -6.5790 N   0  0  0  0  0  0  0  0  0  0  0  0
   -0.1378   12.0540   -5.6653 N   0  0  0  0  0  0  0  0  0  0  0  0
    0.1561   12.9246   -3.6129 O   0  0  0  0  0  0  0  0  0  0  0  0
    1.1658   10.8193   -3.9801 C   0  0  0  0  0  0  0  0  0  0  0  0
    0.4481    9.6412   -3.5248 C   0  0  0  0  0  0  0  0  0  0  0  0
   -1.2832    9.6618   -3.4668 Cl  0  0  0  0  0  0  0  0  0  0  0  0
    3.2998    9.5775   -3.6720 C   0  0  0  0  0  0  0  0  0  0  0  0
    2.6045   10.7653   -4.1053 C   0  0  0  0  0  0  0  0  0  0  0  0
    3.4015   11.9483   -4.6948 C   0  0  1  0  0  0  0  0  0  0  0  0
    4.6446   11.5209   -5.0805 F   0  0  0  0  0  0  0  0  0  0  0  0
    2.7564   12.4491   -5.8053 F   0  0  0  0  0  0  0  0  0  0  0  0
    3.5131   12.9212   -3.7771 F   0  0  0  0  0  0  0  0  0  0  0  0
   -2.4713   16.1565   -6.4023 H   0  0  0  0  0  0  0  0  0  0  0  0
   -1.1862   14.6979   -4.7985 H   0  0  0  0  0  0  0  0  0  0  0  0
    3.1076    7.5581   -2.8462 H   0  0  0  0  0  0  0  0  0  0  0  0
    0.5902    7.5972   -2.8168 H   0  0  0  0  0  0  0  0  0  0  0  0
    0.4041   10.2266  -12.0952 H   0  0  0  0  0  0  0  0  0  0  0  0
   -1.3742    7.0958   -9.5850 H   0  0  0  0  0  0  0  0  0  0  0  0
   -1.4418    8.6881   -7.6648 H   0  0  0  0  0  0  0  0  0  0  0  0
   -3.1112   15.2800   -8.6586 H   0  0  0  0  0  0  0  0  0  0  0  0
    4.3983    9.5394   -3.7150 H   0  0  0  0  0  0  0  0  0  0  0  0
  1  2  2  0
  1 21  1  0
  2  3  1  0
  3  4  2  0
  3 23  1  0
  4  5  1  0
  4  6  1  0
  5 20  1  0
  5 21  2  0
  6 19  1  0
  6 22  2  0
  7 23  1  0
  7 24  2  0
  7 25  1  0
  8  9  2  0
  8 28  1  0
  9 26  1  0
 10 11  1  0
 11 12  2  0
 11 19  1  0
 12 13  1  0
 13 14  1  0
 13 17  2  0
 14 15  1  0
 14 16  2  0
 17 18  1  0
 18 19  2  0
 22 23  1  0
 25 26  2  0
 25 29  1  0
 26 27  1  0
 28 29  2  0
 29 30  1  0
 30 31  1  6
 30 32  1  0
 30 33  1  0
  1 34  1  0
  2 35  1  0
  8 36  1  0
  9 37  1  0
 12 38  1  0
 17 39  1  0
 18 40  1  0
 21 41  1  0
 28 42  1  0
M  CHG  1  15  -1
M  END
>  <filename_input>  (11) 
8FAV_4Y5_docked.sdf

>  <pdb_id>  (11) 
8FAV_4Y5

>  <pose_rank>  (11) 
10

>  <num_atoms_heavy>  (11) 
33

>  <num_torsions>  (11) 
4

>  <pose>  (11) 
[-2.146299944927817, 15.152375989382204, -6.712207376350075, 1.8352744447052491, 0.9401924247880451, -0.9542291414971504, -0.20816507986849642, -0.0029770735347045417, 0.05970859022015228, -0.35265367890174193]

>  <energy>  (11) 
-641.935636894682

>  <inter_energy>  (11) 
-643.3648868783016

>  <intra_energy>  (11) 
23.983189369605274

>  <rmsd>  (11) 
7.10546

>  <sdf_rank>  (11) 
0

$$$$

     RDKit          3D

 42 45  0  0  0  0  0  0  0  0999 V2000
    0.5615    7.1545   -9.8637 C   0  0  0  0  0  0  0  0  0  0  0  0
    1.3069    7.4624   -8.6965 C   0  0  0  0  0  0  0  0  0  0  0  0
    1.0664    8.6970   -8.0041 C   0  0  0  0  0  0  0  0  0  0  0  0
    0.0899    9.6078   -8.5109 C   0  0  0  0  0  0  0  0  0  0  0  0
   -0.6116    9.3019   -9.7172 C   0  0  0  0  0  0  0  0  0  0  0  0
    0.0989   10.7615   -7.5684 C   0  0  0  0  0  0  0  0  0  0  0  0
    2.5390    8.8055   -6.0169 C   0  0  0  0  0  0  0  0  0  0  0  0
    3.7510   11.0845   -2.4964 C   0  0  0  0  0  0  0  0  0  0  0  0
    3.0358    9.8597   -2.3628 C   0  0  0  0  0  0  0  0  0  0  0  0
    0.0863   12.4529   -9.8541 F   0  0  0  0  0  0  0  0  0  0  0  0
   -0.6928   12.7939   -8.7977 C   0  0  0  0  0  0  0  0  0  0  0  0
   -1.4659   13.9039   -8.8678 C   0  0  0  0  0  0  0  0  0  0  0  0
   -2.3080   14.2676   -7.7745 C   0  0  0  0  0  0  0  0  0  0  0  0
   -3.1234   15.4485   -7.8837 C   0  0  0  0  0  0  0  0  0  0  0  0
   -4.2387   15.3988   -8.3768 O   0  0  0  0  0  0  0  0  0  0  0  0
   -2.6206   16.6269   -7.5037 O   0  0  0  0  0  0  0  0  0  0  0  0
   -2.3374   13.4590   -6.5830 C   0  0  0  0  0  0  0  0  0  0  0  0
   -1.5458   12.3260   -6.5072 C   0  0  0  0  0  0  0  0  0  0  0  0
   -0.6945   11.9868   -7.6256 C   0  0  0  0  0  0  0  0  0  0  0  0
   -1.5524   10.1382  -10.1842 F   0  0  0  0  0  0  0  0  0  0  0  0
   -0.3600    8.0879  -10.3846 C   0  0  0  0  0  0  0  0  0  0  0  0
    0.9387   10.4837   -6.6205 N   0  0  0  0  0  0  0  0  0  0  0  0
    1.5816    9.2911   -6.8430 N   0  0  0  0  0  0  0  0  0  0  0  0
    3.1108    7.7506   -6.2560 O   0  0  0  0  0  0  0  0  0  0  0  0
    2.9556    9.6270   -4.8273 C   0  0  0  0  0  0  0  0  0  0  0  0
    2.6340    9.1415   -3.4964 C   0  0  0  0  0  0  0  0  0  0  0  0
    1.7640    7.6545   -3.3139 Cl  0  0  0  0  0  0  0  0  0  0  0  0
    4.1192   11.5639   -3.7855 C   0  0  0  0  0  0  0  0  0  0  0  0
    3.7538   10.8234   -4.9688 C   0  0  0  0  0  0  0  0  0  0  0  0
    4.2208   11.3145   -6.3555 C   0  0  1  0  0  0  0  0  0  0  0  0
    3.1782   11.9198   -7.0062 F   0  0  0  0  0  0  0  0  0  0  0  0
    5.2337   12.2390   -6.2155 F   0  0  0  0  0  0  0  0  0  0  0  0
    4.6722   10.2756   -7.0753 F   0  0  0  0  0  0  0  0  0  0  0  0
    0.7023    6.1852  -10.3642 H   0  0  0  0  0  0  0  0  0  0  0  0
    2.0656    6.7585   -8.3237 H   0  0  0  0  0  0  0  0  0  0  0  0
    4.0200   11.6622   -1.5998 H   0  0  0  0  0  0  0  0  0  0  0  0
    2.7969    9.4745   -1.3606 H   0  0  0  0  0  0  0  0  0  0  0  0
   -1.4446   14.5288   -9.7728 H   0  0  0  0  0  0  0  0  0  0  0  0
   -2.9845   13.7399   -5.7390 H   0  0  0  0  0  0  0  0  0  0  0  0
   -1.5642   11.6923   -5.6083 H   0  0  0  0  0  0  0  0  0  0  0  0
   -0.8881    7.8643  -11.3233 H   0  0  0  0  0  0  0  0  0  0  0  0
    4.6845   12.5028   -3.8797 H   0  0  0  0  0  0  0  0  0  0  0  0
  1  2  2  0
  1 21  1  0
  2  3  1  0
  3  4  2  0
  3 23  1  0
  4  5  1  0
  4  6  1  0
  5 20  1  0
  5 21  2  0
  6 19  1  0
  6 22  2  0
  7 23  1  0
  7 24  2  0
  7 25  1  0
  8  9  2  0
  8 28  1  0
  9 26  1  0
 10 11  1  0
 11 12  2  0
 11 19  1  0
 12 13  1  0
 13 14  1  0
 13 17  2  0
 14 15  1  0
 14 16  2  0
 17 18  1  0
 18 19  2  0
 22 23  1  0
 25 26  2  0
 25 29  1  0
 26 27  1  0
 28 29  2  0
 29 30  1  0
 30 31  1  6
 30 32  1  0
 30 33  1  0
  1 34  1  0
  2 35  1  0
  8 36  1  0
  9 37  1  0
 12 38  1  0
 17 39  1  0
 18 40  1  0
 21 41  1  0
 28 42  1  0
M  CHG  1  15  -1
M  END
>  <filename_input>  (12) 
8FAV_4Y5_docked.sdf

>  <pdb_id>  (12) 
8FAV_4Y5

>  <pose_rank>  (12) 
11

>  <num_atoms_heavy>  (12) 
33

>  <num_torsions>  (12) 
4

>  <pose>  (12) 
[0.5615408713734036, 7.154493564602245, -9.86366273613015, 0.09032587482942399, 2.3344412331305175, 2.19538223934034, 3.1749618395244266, 4.162337786290789, -1.9227954648917533, -1.6394007051572619]

>  <energy>  (12) 
-719.9966939677776

>  <inter_energy>  (12) 
-731.9998629295508

>  <intra_energy>  (12) 
44.738839612683826

>  <rmsd>  (12) 
6.43552

>  <sdf_rank>  (12) 
0

$$$$

     RDKit          3D

 42 45  0  0  0  0  0  0  0  0999 V2000
    0.5713   13.1989   -2.7423 C   0  0  0  0  0  0  0  0  0  0  0  0
   -0.1021   13.6612   -3.9022 C   0  0  0  0  0  0  0  0  0  0  0  0
   -0.0314   12.8992   -5.1169 C   0  0  0  0  0  0  0  0  0  0  0  0
    0.7319   11.6922   -5.1454 C   0  0  0  0  0  0  0  0  0  0  0  0
    1.4453   11.2726   -3.9811 C   0  0  0  0  0  0  0  0  0  0  0  0
    0.5918   11.1688   -6.5332 C   0  0  0  0  0  0  0  0  0  0  0  0
   -1.3741   14.0352   -6.8592 C   0  0  0  0  0  0  0  0  0  0  0  0
   -2.5936   13.9158  -11.0492 C   0  0  0  0  0  0  0  0  0  0  0  0
   -1.3535   14.5030  -10.6660 C   0  0  0  0  0  0  0  0  0  0  0  0
   -0.7954    9.5498   -8.4147 F   0  0  0  0  0  0  0  0  0  0  0  0
    0.4688    9.1979   -8.0724 C   0  0  0  0  0  0  0  0  0  0  0  0
    1.0396    8.1123   -8.6472 C   0  0  0  0  0  0  0  0  0  0  0  0
    2.3762    7.7384   -8.3154 C   0  0  0  0  0  0  0  0  0  0  0  0
    2.9567    6.5843   -8.9499 C   0  0  0  0  0  0  0  0  0  0  0  0
    2.2564    5.6682   -9.3497 O   0  0  0  0  0  0  0  0  0  0  0  0
    4.2866    6.4861   -9.0364 O   0  0  0  0  0  0  0  0  0  0  0  0
    3.1280    8.5103   -7.3596 C   0  0  0  0  0  0  0  0  0  0  0  0
    2.5461    9.6182   -6.7681 C   0  0  0  0  0  0  0  0  0  0  0  0
    1.1868    9.9682   -7.1151 C   0  0  0  0  0  0  0  0  0  0  0  0
    2.1407   10.1241   -3.9901 F   0  0  0  0  0  0  0  0  0  0  0  0
    1.3671   12.0347   -2.7997 C   0  0  0  0  0  0  0  0  0  0  0  0
   -0.2080   11.9653   -7.1711 N   0  0  0  0  0  0  0  0  0  0  0  0
   -0.5788   13.0393   -6.4004 N   0  0  0  0  0  0  0  0  0  0  0  0
   -1.6669   14.9918   -6.1548 O   0  0  0  0  0  0  0  0  0  0  0  0
   -1.8357   13.9938   -8.2906 C   0  0  0  0  0  0  0  0  0  0  0  0
   -0.9753   14.5543   -9.3182 C   0  0  0  0  0  0  0  0  0  0  0  0
    0.5361   15.2735   -8.8715 Cl  0  0  0  0  0  0  0  0  0  0  0  0
   -3.4381   13.3189  -10.0705 C   0  0  0  0  0  0  0  0  0  0  0  0
   -3.0543   13.3213   -8.6795 C   0  0  0  0  0  0  0  0  0  0  0  0
   -3.9420   12.6078   -7.6378 C   0  0  1  0  0  0  0  0  0  0  0  0
   -4.3638   13.5089   -6.6960 F   0  0  0  0  0  0  0  0  0  0  0  0
   -5.0560   12.0736   -8.2494 F   0  0  0  0  0  0  0  0  0  0  0  0
   -3.2478   11.6200   -7.0519 F   0  0  0  0  0  0  0  0  0  0  0  0
    0.4729   13.7495   -1.7951 H   0  0  0  0  0  0  0  0  0  0  0  0
   -0.6758   14.5993   -3.8710 H   0  0  0  0  0  0  0  0  0  0  0  0
   -2.9000   13.9235  -12.1056 H   0  0  0  0  0  0  0  0  0  0  0  0
   -0.6870   14.9199  -11.4354 H   0  0  0  0  0  0  0  0  0  0  0  0
    0.4695    7.5154   -9.3742 H   0  0  0  0  0  0  0  0  0  0  0  0
    4.1575    8.2214   -7.1016 H   0  0  0  0  0  0  0  0  0  0  0  0
    3.1101   10.2241   -6.0437 H   0  0  0  0  0  0  0  0  0  0  0  0
    1.9331   11.7189   -1.9109 H   0  0  0  0  0  0  0  0  0  0  0  0
   -4.3871   12.8541  -10.3760 H   0  0  0  0  0  0  0  0  0  0  0  0
  1  2  2  0
  1 21  1  0
  2  3  1  0
  3  4  2  0
  3 23  1  0
  4  5  1  0
  4  6  1  0
  5 20  1  0
  5 21  2  0
  6 19  1  0
  6 22  2  0
  7 23  1  0
  7 24  2  0
  7 25  1  0
  8  9  2  0
  8 28  1  0
  9 26  1  0
 10 11  1  0
 11 12  2  0
 11 19  1  0
 12 13  1  0
 13 14  1  0
 13 17  2  0
 14 15  1  0
 14 16  2  0
 17 18  1  0
 18 19  2  0
 22 23  1  0
 25 26  2  0
 25 29  1  0
 26 27  1  0
 28 29  2  0
 29 30  1  0
 30 31  1  1
 30 32  1  0
 30 33  1  0
  1 34  1  0
  2 35  1  0
  8 36  1  0
  9 37  1  0
 12 38  1  0
 17 39  1  0
 18 40  1  0
 21 41  1  0
 28 42  1  0
M  CHG  1  15  -1
M  END
>  <filename_input>  (13) 
8FAV_4Y5_docked.sdf

>  <pdb_id>  (13) 
8FAV_4Y5

>  <pose_rank>  (13) 
12

>  <num_atoms_heavy>  (13) 
33

>  <num_torsions>  (13) 
4

>  <pose>  (13) 
[0.5712989033756005, 13.198858216348018, -2.7422517988478115, -1.81327236399694, 2.035276156229901, -1.1046887375443533, -0.28107450227195596, 3.8625424622119713, 1.5393938478991396, 2.6396490807470503]

>  <energy>  (13) 
-657.0884238762736

>  <inter_energy>  (13) 
-660.5857079664197

>  <intra_energy>  (13) 
35.45454339747096

>  <rmsd>  (13) 
5.24813

>  <sdf_rank>  (13) 
0

$$$$

     RDKit          3D

 42 45  0  0  0  0  0  0  0  0999 V2000
    2.2889    9.0756   -5.4103 C   0  0  0  0  0  0  0  0  0  0  0  0
    1.4306   10.1787   -5.6532 C   0  0  0  0  0  0  0  0  0  0  0  0
    0.7813   10.3076   -6.9273 C   0  0  0  0  0  0  0  0  0  0  0  0
    1.0226    9.3304   -7.9406 C   0  0  0  0  0  0  0  0  0  0  0  0
    1.9316    8.2565   -7.6930 C   0  0  0  0  0  0  0  0  0  0  0  0
    0.2072    9.7638   -9.1097 C   0  0  0  0  0  0  0  0  0  0  0  0
   -0.6451   12.3310   -6.9028 C   0  0  0  0  0  0  0  0  0  0  0  0
   -3.4397   14.8635   -9.1013 C   0  0  0  0  0  0  0  0  0  0  0  0
   -3.7533   14.3942   -7.7933 C   0  0  0  0  0  0  0  0  0  0  0  0
   -0.5543    7.0430   -9.4300 F   0  0  0  0  0  0  0  0  0  0  0  0
   -0.3093    7.7773  -10.5435 C   0  0  0  0  0  0  0  0  0  0  0  0
   -0.4560    7.2097  -11.7646 C   0  0  0  0  0  0  0  0  0  0  0  0
   -0.2229    7.9722  -12.9481 C   0  0  0  0  0  0  0  0  0  0  0  0
   -0.3954    7.3419  -14.2304 C   0  0  0  0  0  0  0  0  0  0  0  0
    0.1944    7.7523  -15.2169 O   0  0  0  0  0  0  0  0  0  0  0  0
   -1.2692    6.3381  -14.3526 O   0  0  0  0  0  0  0  0  0  0  0  0
    0.1776    9.3524  -12.8531 C   0  0  0  0  0  0  0  0  0  0  0  0
    0.3317    9.9342  -11.6066 C   0  0  0  0  0  0  0  0  0  0  0  0
    0.0989    9.1354  -10.4241 C   0  0  0  0  0  0  0  0  0  0  0  0
    2.1412    7.3171   -8.6290 F   0  0  0  0  0  0  0  0  0  0  0  0
    2.5620    8.1483   -6.4386 C   0  0  0  0  0  0  0  0  0  0  0  0
   -0.4529   10.8214   -8.7538 N   0  0  0  0  0  0  0  0  0  0  0  0
   -0.1231   11.2239   -7.4832 N   0  0  0  0  0  0  0  0  0  0  0  0
   -0.3123   12.6767   -5.7773 O   0  0  0  0  0  0  0  0  0  0  0  0
   -1.5918   13.1888   -7.6975 C   0  0  0  0  0  0  0  0  0  0  0  0
   -2.8604   13.5674   -7.0995 C   0  0  0  0  0  0  0  0  0  0  0  0
   -3.2598   13.0056   -5.5101 Cl  0  0  0  0  0  0  0  0  0  0  0  0
   -2.1859   14.5460   -9.6965 C   0  0  0  0  0  0  0  0  0  0  0  0
   -1.2300   13.7297   -8.9879 C   0  0  0  0  0  0  0  0  0  0  0  0
    0.1540   13.4527   -9.6123 C   0  0  1  0  0  0  0  0  0  0  0  0
   -0.0023   12.9502  -10.8771 F   0  0  0  0  0  0  0  0  0  0  0  0
    0.8773   14.6228   -9.7020 F   0  0  0  0  0  0  0  0  0  0  0  0
    0.8282   12.5783   -8.8493 F   0  0  0  0  0  0  0  0  0  0  0  0
    2.7431    8.9426   -4.4173 H   0  0  0  0  0  0  0  0  0  0  0  0
    1.2633   10.9318   -4.8691 H   0  0  0  0  0  0  0  0  0  0  0  0
   -4.1694   15.4737   -9.6538 H   0  0  0  0  0  0  0  0  0  0  0  0
   -4.7051   14.6836   -7.3239 H   0  0  0  0  0  0  0  0  0  0  0  0
   -0.7568    6.1546  -11.8444 H   0  0  0  0  0  0  0  0  0  0  0  0
    0.3597    9.9402  -13.7648 H   0  0  0  0  0  0  0  0  0  0  0  0
    0.6272   10.9899  -11.5169 H   0  0  0  0  0  0  0  0  0  0  0  0
    3.2759    7.3311   -6.2580 H   0  0  0  0  0  0  0  0  0  0  0  0
   -1.9448   14.9247  -10.7008 H   0  0  0  0  0  0  0  0  0  0  0  0
  1  2  2  0
  1 21  1  0
  2  3  1  0
  3  4  2  0
  3 23  1  0
  4  5  1  0
  4  6  1  0
  5 20  1  0
  5 21  2  0
  6 19  1  0
  6 22  2  0
  7 23  1  0
  7 24  2  0
  7 25  1  0
  8  9  2  0
  8 28  1  0
  9 26  1  0
 10 11  1  0
 11 12  2  0
 11 19  1  0
 12 13  1  0
 13 14  1  0
 13 17  2  0
 14 15  1  0
 14 16  2  0
 17 18  1  0
 18 19  2  0
 22 23  1  0
 25 26  2  0
 25 29  1  0
 26 27  1  0
 28 29  2  0
 29 30  1  0
 30 31  1  6
 30 32  1  0
 30 33  1  0
  1 34  1  0
  2 35  1  0
  8 36  1  0
  9 37  1  0
 12 38  1  0
 17 39  1  0
 18 40  1  0
 21 41  1  0
 28 42  1  0
M  CHG  1  15  -1
M  END
>  <filename_input>  (14) 
8FAV_4Y5_docked.sdf

>  <pdb_id>  (14) 
8FAV_4Y5

>  <pose_rank>  (14) 
13

>  <num_atoms_heavy>  (14) 
33

>  <num_torsions>  (14) 
4

>  <pose>  (14) 
[2.2889498374432, 9.075597273999417, -5.4103075889600465, 1.8094762246711114, -2.748430386523085, -0.0073134096862139675, 3.4860545983802758, -1.2470956491742138, 0.009819879387511228, 0.40917084475104093]

>  <energy>  (14) 
-500.5525587372147

>  <inter_energy>  (14) 
-675.0227115338532

>  <intra_energy>  (14) 
183.78554527266039

>  <rmsd>  (14) 
5.9131

>  <sdf_rank>  (14) 
0

$$$$

     RDKit          3D

 42 45  0  0  0  0  0  0  0  0999 V2000
    2.0607   11.8183   -3.4345 C   0  0  0  0  0  0  0  0  0  0  0  0
    1.2042   12.7003   -4.1424 C   0  0  0  0  0  0  0  0  0  0  0  0
    0.6233   12.2814   -5.3868 C   0  0  0  0  0  0  0  0  0  0  0  0
    0.9302   10.9860   -5.9043 C   0  0  0  0  0  0  0  0  0  0  0  0
    1.8367   10.1344   -5.2017 C   0  0  0  0  0  0  0  0  0  0  0  0
    0.1743   10.8825   -7.1840 C   0  0  0  0  0  0  0  0  0  0  0  0
   -0.8253   14.0942   -6.2495 C   0  0  0  0  0  0  0  0  0  0  0  0
   -3.3824   15.3162   -9.5699 C   0  0  0  0  0  0  0  0  0  0  0  0
   -1.9633   15.3630   -9.6855 C   0  0  0  0  0  0  0  0  0  0  0  0
   -2.1642   10.2102   -8.6552 F   0  0  0  0  0  0  0  0  0  0  0  0
   -1.0392    9.4836   -8.8689 C   0  0  0  0  0  0  0  0  0  0  0  0
   -1.0517    8.4852   -9.7842 C   0  0  0  0  0  0  0  0  0  0  0  0
    0.1279    7.7232  -10.0378 C   0  0  0  0  0  0  0  0  0  0  0  0
    0.0838    6.6745  -11.0225 C   0  0  0  0  0  0  0  0  0  0  0  0
    0.6968    5.6320  -10.8583 O   0  0  0  0  0  0  0  0  0  0  0  0
   -0.5814    6.8774  -12.1637 O   0  0  0  0  0  0  0  0  0  0  0  0
    1.3418    8.0062   -9.3162 C   0  0  0  0  0  0  0  0  0  0  0  0
    1.3567    9.0236   -8.3778 C   0  0  0  0  0  0  0  0  0  0  0  0
    0.1444    9.7728   -8.1336 C   0  0  0  0  0  0  0  0  0  0  0  0
    2.1074    8.9038   -5.6655 F   0  0  0  0  0  0  0  0  0  0  0  0
    2.3996   10.5635   -3.9846 C   0  0  0  0  0  0  0  0  0  0  0  0
   -0.5161   11.9718   -7.3179 N   0  0  0  0  0  0  0  0  0  0  0  0
   -0.2601   12.8645   -6.3067 N   0  0  0  0  0  0  0  0  0  0  0  0
   -0.5579   14.8765   -5.3476 O   0  0  0  0  0  0  0  0  0  0  0  0
   -1.7374   14.5258   -7.3655 C   0  0  0  0  0  0  0  0  0  0  0  0
   -1.1477   14.9863   -8.6107 C   0  0  0  0  0  0  0  0  0  0  0  0
    0.5762   15.0511   -8.7697 Cl  0  0  0  0  0  0  0  0  0  0  0  0
   -3.9900   14.8281   -8.3784 C   0  0  0  0  0  0  0  0  0  0  0  0
   -3.1735   14.3950   -7.2702 C   0  0  0  0  0  0  0  0  0  0  0  0
   -3.8412   13.8000   -6.0123 C   0  0  1  0  0  0  0  0  0  0  0  0
   -3.2480   12.6064   -5.6956 F   0  0  0  0  0  0  0  0  0  0  0  0
   -3.6839   14.6543   -4.9420 F   0  0  0  0  0  0  0  0  0  0  0  0
   -5.1514   13.6175   -6.2385 F   0  0  0  0  0  0  0  0  0  0  0  0
    2.4620   12.1133   -2.4537 H   0  0  0  0  0  0  0  0  0  0  0  0
    0.9861   13.7004   -3.7397 H   0  0  0  0  0  0  0  0  0  0  0  0
   -4.0115   15.6587  -10.4048 H   0  0  0  0  0  0  0  0  0  0  0  0
   -1.5038   15.6979  -10.6271 H   0  0  0  0  0  0  0  0  0  0  0  0
   -1.9768    8.2604  -10.3353 H   0  0  0  0  0  0  0  0  0  0  0  0
    2.2509    7.4178   -9.5095 H   0  0  0  0  0  0  0  0  0  0  0  0
    2.2783    9.2590   -7.8254 H   0  0  0  0  0  0  0  0  0  0  0  0
    3.1119    9.9129   -3.4560 H   0  0  0  0  0  0  0  0  0  0  0  0
   -5.0863   14.7808   -8.3023 H   0  0  0  0  0  0  0  0  0  0  0  0
  1  2  2  0
  1 21  1  0
  2  3  1  0
  3  4  2  0
  3 23  1  0
  4  5  1  0
  4  6  1  0
  5 20  1  0
  5 21  2  0
  6 19  1  0
  6 22  2  0
  7 23  1  0
  7 24  2  0
  7 25  1  0
  8  9  2  0
  8 28  1  0
  9 26  1  0
 10 11  1  0
 11 12  2  0
 11 19  1  0
 12 13  1  0
 13 14  1  0
 13 17  2  0
 14 15  1  0
 14 16  2  0
 17 18  1  0
 18 19  2  0
 22 23  1  0
 25 26  2  0
 25 29  1  0
 26 27  1  0
 28 29  2  0
 29 30  1  0
 30 31  1  1
 30 32  1  0
 30 33  1  0
  1 34  1  0
  2 35  1  0
  8 36  1  0
  9 37  1  0
 12 38  1  0
 17 39  1  0
 18 40  1  0
 21 41  1  0
 28 42  1  0
M  CHG  1  15  -1
M  END
>  <filename_input>  (15) 
8FAV_4Y5_docked.sdf

>  <pdb_id>  (15) 
8FAV_4Y5

>  <pose_rank>  (15) 
14

>  <num_atoms_heavy>  (15) 
33

>  <num_torsions>  (15) 
4

>  <pose>  (15) 
[2.0606882494355094, 11.81828130169772, -3.434453350578606, -1.7852043202108043, 2.567566220902771, -0.5837439335942919, -0.1583688120242099, 1.9373336501847145, 1.5804653654992746, 0.6204164646867557]

>  <energy>  (15) 
-633.8240044852771

>  <inter_energy>  (15) 
-658.6480180857083

>  <intra_energy>  (15) 
40.24466573501826

>  <rmsd>  (15) 
5.79082

>  <sdf_rank>  (15) 
0

$$$$

     RDKit          3D

 42 45  0  0  0  0  0  0  0  0999 V2000
    2.8448   11.9800   -2.7123 C   0  0  0  0  0  0  0  0  0  0  0  0
    2.9332   10.9899   -3.7245 C   0  0  0  0  0  0  0  0  0  0  0  0
    1.9645   10.9675   -4.7840 C   0  0  0  0  0  0  0  0  0  0  0  0
    0.9130   11.9340   -4.7948 C   0  0  0  0  0  0  0  0  0  0  0  0
    0.8120   12.8890   -3.7372 C   0  0  0  0  0  0  0  0  0  0  0  0
    0.1056   11.6260   -6.0084 C   0  0  0  0  0  0  0  0  0  0  0  0
    2.5165    9.1231   -6.3405 C   0  0  0  0  0  0  0  0  0  0  0  0
    1.4458    7.0746  -10.0438 C   0  0  0  0  0  0  0  0  0  0  0  0
    2.1789    8.2958  -10.0704 C   0  0  0  0  0  0  0  0  0  0  0  0
   -2.4414   10.3623   -5.9730 F   0  0  0  0  0  0  0  0  0  0  0  0
   -2.3620   11.6359   -6.4322 C   0  0  0  0  0  0  0  0  0  0  0  0
   -3.4877   12.2735   -6.8336 C   0  0  0  0  0  0  0  0  0  0  0  0
   -3.4271   13.6207   -7.3003 C   0  0  0  0  0  0  0  0  0  0  0  0
   -4.6424   14.2726   -7.7119 C   0  0  0  0  0  0  0  0  0  0  0  0
   -5.7334   13.7993   -7.4379 O   0  0  0  0  0  0  0  0  0  0  0  0
   -4.5701   15.3737   -8.4658 O   0  0  0  0  0  0  0  0  0  0  0  0
   -2.1649   14.3122   -7.3544 C   0  0  0  0  0  0  0  0  0  0  0  0
   -1.0124   13.6621   -6.9481 C   0  0  0  0  0  0  0  0  0  0  0  0
   -1.1014   12.2938   -6.4895 C   0  0  0  0  0  0  0  0  0  0  0  0
   -0.1554   13.8199   -3.7552 F   0  0  0  0  0  0  0  0  0  0  0  0
    1.7691   12.8936   -2.7045 C   0  0  0  0  0  0  0  0  0  0  0  0
    0.6865   10.6438   -6.6239 N   0  0  0  0  0  0  0  0  0  0  0  0
    1.7718   10.1757   -5.9253 N   0  0  0  0  0  0  0  0  0  0  0  0
    3.4636    8.7144   -5.6826 O   0  0  0  0  0  0  0  0  0  0  0  0
    2.1133    8.3999   -7.5968 C   0  0  0  0  0  0  0  0  0  0  0  0
    2.5045    8.9579   -8.8797 C   0  0  0  0  0  0  0  0  0  0  0  0
    3.3955   10.4427   -8.9323 Cl  0  0  0  0  0  0  0  0  0  0  0  0
    1.0864    6.4800   -8.8011 C   0  0  0  0  0  0  0  0  0  0  0  0
    1.4443    7.1195   -7.5580 C   0  0  0  0  0  0  0  0  0  0  0  0
    1.1135    6.4296   -6.2176 C   0  0  1  0  0  0  0  0  0  0  0  0
    0.5849    7.3446   -5.3456 F   0  0  0  0  0  0  0  0  0  0  0  0
    0.1798    5.4346   -6.4134 F   0  0  0  0  0  0  0  0  0  0  0  0
    2.2274    5.8894   -5.6993 F   0  0  0  0  0  0  0  0  0  0  0  0
    3.6172   12.0358   -1.9310 H   0  0  0  0  0  0  0  0  0  0  0  0
    3.7402   10.2428   -3.6977 H   0  0  0  0  0  0  0  0  0  0  0  0
    1.1563    6.5889  -10.9874 H   0  0  0  0  0  0  0  0  0  0  0  0
    2.4920    8.7227  -11.0346 H   0  0  0  0  0  0  0  0  0  0  0  0
   -4.4543   11.7497   -6.7997 H   0  0  0  0  0  0  0  0  0  0  0  0
   -2.1170   15.3500   -7.7162 H   0  0  0  0  0  0  0  0  0  0  0  0
   -0.0420   14.1795   -6.9738 H   0  0  0  0  0  0  0  0  0  0  0  0
    1.6773   13.6180   -1.8818 H   0  0  0  0  0  0  0  0  0  0  0  0
    0.5335    5.5291   -8.7884 H   0  0  0  0  0  0  0  0  0  0  0  0
  1  2  2  0
  1 21  1  0
  2  3  1  0
  3  4  2  0
  3 23  1  0
  4  5  1  0
  4  6  1  0
  5 20  1  0
  5 21  2  0
  6 19  1  0
  6 22  2  0
  7 23  1  0
  7 24  2  0
  7 25  1  0
  8  9  2  0
  8 28  1  0
  9 26  1  0
 10 11  1  0
 11 12  2  0
 11 19  1  0
 12 13  1  0
 13 14  1  0
 13 17  2  0
 14 15  1  0
 14 16  2  0
 17 18  1  0
 18 19  2  0
 22 23  1  0
 25 26  2  0
 25 29  1  0
 26 27  1  0
 28 29  2  0
 29 30  1  0
 30 31  1  1
 30 32  1  0
 30 33  1  0
  1 34  1  0
  2 35  1  0
  8 36  1  0
  9 37  1  0
 12 38  1  0
 17 39  1  0
 18 40  1  0
 21 41  1  0
 28 42  1  0
M  CHG  1  15  -1
M  END
>  <filename_input>  (16) 
8FAV_4Y5_docked.sdf

>  <pdb_id>  (16) 
8FAV_4Y5

>  <pose_rank>  (16) 
15

>  <num_atoms_heavy>  (16) 
33

>  <num_torsions>  (16) 
4

>  <pose>  (16) 
[2.8448287437188435, 11.979964173455382, -2.712301218250528, 2.527393663214128, 1.995932819503547, -2.0979682952185534, -3.6413691111411732, 3.6032996419517835, -2.895520763680092, -2.926228123391872]

>  <energy>  (16) 
-523.8406717052958

>  <inter_energy>  (16) 
-549.2338520820749

>  <intra_energy>  (16) 
19.520334419655534

>  <rmsd>  (16) 
7.77594

>  <sdf_rank>  (16) 
0

$$$$

     RDKit          3D

 42 45  0  0  0  0  0  0  0  0999 V2000
    2.6123   12.0038   -3.2811 C   0  0  0  0  0  0  0  0  0  0  0  0
    2.5270   11.0637   -4.3402 C   0  0  0  0  0  0  0  0  0  0  0  0
    1.4311   11.1319   -5.2652 C   0  0  0  0  0  0  0  0  0  0  0  0
    0.4305   12.1370   -5.0957 C   0  0  0  0  0  0  0  0  0  0  0  0
    0.5075   13.0402   -3.9916 C   0  0  0  0  0  0  0  0  0  0  0  0
   -0.5379   11.9218   -6.2072 C   0  0  0  0  0  0  0  0  0  0  0  0
    1.6980    9.3494   -6.9623 C   0  0  0  0  0  0  0  0  0  0  0  0
   -0.0153    7.5960  -10.5745 C   0  0  0  0  0  0  0  0  0  0  0  0
   -0.2079    8.9741  -10.2695 C   0  0  0  0  0  0  0  0  0  0  0  0
   -2.7416   10.7258   -7.5483 F   0  0  0  0  0  0  0  0  0  0  0  0
   -2.8560   12.0167   -7.1487 C   0  0  0  0  0  0  0  0  0  0  0  0
   -4.0116   12.6866   -7.3738 C   0  0  0  0  0  0  0  0  0  0  0  0
   -4.1582   14.0389   -6.9421 C   0  0  0  0  0  0  0  0  0  0  0  0
   -5.4017   14.7200   -7.1893 C   0  0  0  0  0  0  0  0  0  0  0  0
   -6.1854   14.3119   -8.0311 O   0  0  0  0  0  0  0  0  0  0  0  0
   -5.6657   15.8554   -6.5357 O   0  0  0  0  0  0  0  0  0  0  0  0
   -3.0738   14.7054   -6.2682 C   0  0  0  0  0  0  0  0  0  0  0  0
   -1.8905   14.0245   -6.0398 C   0  0  0  0  0  0  0  0  0  0  0  0
   -1.7657   12.6585   -6.4970 C   0  0  0  0  0  0  0  0  0  0  0  0
   -0.4123   14.0068   -3.8418 F   0  0  0  0  0  0  0  0  0  0  0  0
    1.5878   12.9560   -3.0925 C   0  0  0  0  0  0  0  0  0  0  0  0
   -0.0842   10.9508   -6.9368 N   0  0  0  0  0  0  0  0  0  0  0  0
    1.0596   10.4070   -6.4067 N   0  0  0  0  0  0  0  0  0  0  0  0
    2.7023    8.8721   -6.4519 O   0  0  0  0  0  0  0  0  0  0  0  0
    1.1064    8.7068   -8.1873 C   0  0  0  0  0  0  0  0  0  0  0  0
    0.3294    9.5274   -9.1001 C   0  0  0  0  0  0  0  0  0  0  0  0
    0.0835   11.2053   -8.7457 Cl  0  0  0  0  0  0  0  0  0  0  0  0
    0.7781    6.7763   -9.7225 C   0  0  0  0  0  0  0  0  0  0  0  0
    1.3775    7.3298   -8.5323 C   0  0  0  0  0  0  0  0  0  0  0  0
    2.2946    6.4508   -7.6556 C   0  0  1  0  0  0  0  0  0  0  0  0
    3.0692    7.2475   -6.8543 F   0  0  0  0  0  0  0  0  0  0  0  0
    1.5359    5.6347   -6.8441 F   0  0  0  0  0  0  0  0  0  0  0  0
    3.0738    5.6883   -8.4382 F   0  0  0  0  0  0  0  0  0  0  0  0
    3.4797   11.9905   -2.6047 H   0  0  0  0  0  0  0  0  0  0  0  0
    3.2970   10.2862   -4.4522 H   0  0  0  0  0  0  0  0  0  0  0  0
   -0.4815    7.1633  -11.4719 H   0  0  0  0  0  0  0  0  0  0  0  0
   -0.7837    9.6096  -10.9585 H   0  0  0  0  0  0  0  0  0  0  0  0
   -4.8420   12.1852   -7.8924 H   0  0  0  0  0  0  0  0  0  0  0  0
   -3.1852   15.7485   -5.9372 H   0  0  0  0  0  0  0  0  0  0  0  0
   -1.0564   14.5160   -5.5176 H   0  0  0  0  0  0  0  0  0  0  0  0
    1.6337   13.6406   -2.2327 H   0  0  0  0  0  0  0  0  0  0  0  0
    0.9347    5.7166   -9.9726 H   0  0  0  0  0  0  0  0  0  0  0  0
  1  2  2  0
  1 21  1  0
  2  3  1  0
  3  4  2  0
  3 23  1  0
  4  5  1  0
  4  6  1  0
  5 20  1  0
  5 21  2  0
  6 19  1  0
  6 22  2  0
  7 23  1  0
  7 24  2  0
  7 25  1  0
  8  9  2  0
  8 28  1  0
  9 26  1  0
 10 11  1  0
 11 12  2  0
 11 19  1  0
 12 13  1  0
 13 14  1  0
 13 17  2  0
 14 15  1  0
 14 16  2  0
 17 18  1  0
 18 19  2  0
 22 23  1  0
 25 26  2  0
 25 29  1  0
 26 27  1  0
 28 29  2  0
 29 30  1  0
 30 31  1  1
 30 32  1  0
 30 33  1  0
  1 34  1  0
  2 35  1  0
  8 36  1  0
  9 37  1  0
 12 38  1  0
 17 39  1  0
 18 40  1  0
 21 41  1  0
 28 42  1  0
M  CHG  1  15  -1
M  END
>  <filename_input>  (17) 
8FAV_4Y5_docked.sdf

>  <pdb_id>  (17) 
8FAV_4Y5

>  <pose_rank>  (17) 
16

>  <num_atoms_heavy>  (17) 
33

>  <num_torsions>  (17) 
4

>  <pose>  (17) 
[2.6122969007780674, 12.003788609431039, -3.2810746602364342, 2.5282951105556593, 2.006223589223904, -2.30165067652227, 1.7354332261345544, 2.493590016071939, -3.6132182363097916, 2.7857938328646252]

>  <energy>  (17) 
-299.53368938308176

>  <inter_energy>  (17) 
-635.1937991361955

>  <intra_energy>  (17) 
339.807684756817

>  <rmsd>  (17) 
7.57258

>  <sdf_rank>  (17) 
0

$$$$

     RDKit          3D

 42 45  0  0  0  0  0  0  0  0999 V2000
   -2.1363   15.2148   -8.4646 C   0  0  0  0  0  0  0  0  0  0  0  0
   -1.1329   14.2170   -8.5653 C   0  0  0  0  0  0  0  0  0  0  0  0
   -1.4679   12.8436   -8.3144 C   0  0  0  0  0  0  0  0  0  0  0  0
   -2.8060   12.5024   -7.9495 C   0  0  0  0  0  0  0  0  0  0  0  0
   -3.7883   13.5291   -7.8022 C   0  0  0  0  0  0  0  0  0  0  0  0
   -2.8008   11.0239   -7.7664 C   0  0  0  0  0  0  0  0  0  0  0  0
    0.5515   11.4495   -8.6427 C   0  0  0  0  0  0  0  0  0  0  0  0
    2.1854    7.4014   -8.6513 C   0  0  0  0  0  0  0  0  0  0  0  0
    1.4141    7.8799   -9.7493 C   0  0  0  0  0  0  0  0  0  0  0  0
   -2.8523    9.6866   -5.2576 F   0  0  0  0  0  0  0  0  0  0  0  0
   -3.9059    9.5220   -6.0955 C   0  0  0  0  0  0  0  0  0  0  0  0
   -4.9534    8.7545   -5.7101 C   0  0  0  0  0  0  0  0  0  0  0  0
   -6.0801    8.5862   -6.5695 C   0  0  0  0  0  0  0  0  0  0  0  0
   -7.1805    7.7710   -6.1270 C   0  0  0  0  0  0  0  0  0  0  0  0
   -7.1382    7.1849   -5.0573 O   0  0  0  0  0  0  0  0  0  0  0  0
   -8.2318    7.5988   -6.9339 O   0  0  0  0  0  0  0  0  0  0  0  0
   -6.1094    9.2272   -7.8589 C   0  0  0  0  0  0  0  0  0  0  0  0
   -5.0389   10.0093   -8.2569 C   0  0  0  0  0  0  0  0  0  0  0  0
   -3.9059   10.1542   -7.3705 C   0  0  0  0  0  0  0  0  0  0  0  0
   -5.0553   13.2143   -7.4888 F   0  0  0  0  0  0  0  0  0  0  0  0
   -3.4406   14.8710   -8.0489 C   0  0  0  0  0  0  0  0  0  0  0  0
   -1.6115   10.5991   -8.0598 N   0  0  0  0  0  0  0  0  0  0  0  0
   -0.7581   11.6347   -8.3500 N   0  0  0  0  0  0  0  0  0  0  0  0
    1.2922   12.3957   -8.8733 O   0  0  0  0  0  0  0  0  0  0  0  0
    1.1136   10.0545   -8.6025 C   0  0  0  0  0  0  0  0  0  0  0  0
    0.8775    9.1738   -9.7334 C   0  0  0  0  0  0  0  0  0  0  0  0
   -0.0589    9.7375  -11.0775 Cl  0  0  0  0  0  0  0  0  0  0  0  0
    2.4711    8.2553   -7.5484 C   0  0  0  0  0  0  0  0  0  0  0  0
    1.9651    9.6065   -7.5243 C   0  0  0  0  0  0  0  0  0  0  0  0
    2.3417   10.5456   -6.3588 C   0  0  1  0  0  0  0  0  0  0  0  0
    3.1075    9.8669   -5.4479 F   0  0  0  0  0  0  0  0  0  0  0  0
    3.0777   11.6127   -6.8276 F   0  0  0  0  0  0  0  0  0  0  0  0
    1.2270   11.0069   -5.7707 F   0  0  0  0  0  0  0  0  0  0  0  0
   -1.8971   16.2597   -8.7113 H   0  0  0  0  0  0  0  0  0  0  0  0
   -0.1030   14.4942   -8.8343 H   0  0  0  0  0  0  0  0  0  0  0  0
    2.5619    6.3678   -8.6556 H   0  0  0  0  0  0  0  0  0  0  0  0
    1.2384    7.2276  -10.6173 H   0  0  0  0  0  0  0  0  0  0  0  0
   -4.9354    8.2580   -4.7287 H   0  0  0  0  0  0  0  0  0  0  0  0
   -6.9765    9.0962   -8.5229 H   0  0  0  0  0  0  0  0  0  0  0  0
   -5.0501   10.5138   -9.2344 H   0  0  0  0  0  0  0  0  0  0  0  0
   -4.1945   15.6610   -7.9159 H   0  0  0  0  0  0  0  0  0  0  0  0
    3.0801    7.8835   -6.7112 H   0  0  0  0  0  0  0  0  0  0  0  0
  1  2  2  0
  1 21  1  0
  2  3  1  0
  3  4  2  0
  3 23  1  0
  4  5  1  0
  4  6  1  0
  5 20  1  0
  5 21  2  0
  6 19  1  0
  6 22  2  0
  7 23  1  0
  7 24  2  0
  7 25  1  0
  8  9  2  0
  8 28  1  0
  9 26  1  0
 10 11  1  0
 11 12  2  0
 11 19  1  0
 12 13  1  0
 13 14  1  0
 13 17  2  0
 14 15  1  0
 14 16  2  0
 17 18  1  0
 18 19  2  0
 22 23  1  0
 25 26  2  0
 25 29  1  0
 26 27  1  0
 28 29  2  0
 29 30  1  0
 30 31  1  1
 30 32  1  0
 30 33  1  0
  1 34  1  0
  2 35  1  0
  8 36  1  0
  9 37  1  0
 12 38  1  0
 17 39  1  0
 18 40  1  0
 21 41  1  0
 28 42  1  0
M  CHG  1  15  -1
M  END
>  <filename_input>  (18) 
8FAV_4Y5_docked.sdf

>  <pdb_id>  (18) 
8FAV_4Y5

>  <pose_rank>  (18) 
17

>  <num_atoms_heavy>  (18) 
33

>  <num_torsions>  (18) 
4

>  <pose>  (18) 
[-2.136348404445023, 15.214788351402069, -8.464602471104332, -0.9038416119294089, -1.128487195529528, 3.1439618101427897, -3.6760653570406605, -0.3635668159862083, 3.3749267368286655, 3.063396218964536]

>  <energy>  (18) 
-559.7964136525013

>  <inter_energy>  (18) 
-555.2993642842507

>  <intra_energy>  (18) 
21.205702876254406

>  <rmsd>  (18) 
7.46445

>  <sdf_rank>  (18) 
0

$$$$

     RDKit          3D

 42 45  0  0  0  0  0  0  0  0999 V2000
   -2.6304   14.9816   -8.1388 C   0  0  0  0  0  0  0  0  0  0  0  0
   -1.5944   14.0236   -8.2856 C   0  0  0  0  0  0  0  0  0  0  0  0
   -1.8711   12.6348   -8.0488 C   0  0  0  0  0  0  0  0  0  0  0  0
   -3.1844   12.2382   -7.6511 C   0  0  0  0  0  0  0  0  0  0  0  0
   -4.1989   13.2251   -7.4578 C   0  0  0  0  0  0  0  0  0  0  0  0
   -3.1194   10.7581   -7.4937 C   0  0  0  0  0  0  0  0  0  0  0  0
    0.1876   11.3225   -8.4594 C   0  0  0  0  0  0  0  0  0  0  0  0
    1.9670    7.3380   -8.3344 C   0  0  0  0  0  0  0  0  0  0  0  0
    2.1572    8.2568   -7.2623 C   0  0  0  0  0  0  0  0  0  0  0  0
   -5.7058   10.8030   -8.6744 F   0  0  0  0  0  0  0  0  0  0  0  0
   -5.4536    9.8795   -7.7137 C   0  0  0  0  0  0  0  0  0  0  0  0
   -6.4202    8.9976   -7.3637 C   0  0  0  0  0  0  0  0  0  0  0  0
   -6.1670    8.0054   -6.3698 C   0  0  0  0  0  0  0  0  0  0  0  0
   -7.2125    7.0779   -6.0264 C   0  0  0  0  0  0  0  0  0  0  0  0
   -7.8804    6.5351   -6.8918 O   0  0  0  0  0  0  0  0  0  0  0  0
   -7.5001    6.8652   -4.7388 O   0  0  0  0  0  0  0  0  0  0  0  0
   -4.8809    7.9382   -5.7250 C   0  0  0  0  0  0  0  0  0  0  0  0
   -3.8923    8.8404   -6.0781 C   0  0  0  0  0  0  0  0  0  0  0  0
   -4.1795    9.8416   -7.0808 C   0  0  0  0  0  0  0  0  0  0  0  0
   -5.4437   12.8583   -7.1133 F   0  0  0  0  0  0  0  0  0  0  0  0
   -3.9083   14.5828   -7.6913 C   0  0  0  0  0  0  0  0  0  0  0  0
   -1.9245   10.3827   -7.8286 N   0  0  0  0  0  0  0  0  0  0  0  0
   -1.1187   11.4539   -8.1256 N   0  0  0  0  0  0  0  0  0  0  0  0
    0.8858   12.2991   -8.6950 O   0  0  0  0  0  0  0  0  0  0  0  0
    0.8015    9.9488   -8.4595 C   0  0  0  0  0  0  0  0  0  0  0  0
    1.5985    9.5402   -7.3157 C   0  0  0  0  0  0  0  0  0  0  0  0
    1.8418   10.6440   -6.0028 Cl  0  0  0  0  0  0  0  0  0  0  0  0
    1.1548    7.6932   -9.4486 C   0  0  0  0  0  0  0  0  0  0  0  0
    0.5336    8.9941   -9.5108 C   0  0  0  0  0  0  0  0  0  0  0  0
   -0.4029    9.3412  -10.6875 C   0  0  1  0  0  0  0  0  0  0  0  0
   -0.2587   10.6629  -11.0179 F   0  0  0  0  0  0  0  0  0  0  0  0
   -0.0771    8.5848  -11.7928 F   0  0  0  0  0  0  0  0  0  0  0  0
   -1.6753    9.0887  -10.3433 F   0  0  0  0  0  0  0  0  0  0  0  0
   -2.4372   16.0385   -8.3743 H   0  0  0  0  0  0  0  0  0  0  0  0
   -0.5838   14.3433   -8.5796 H   0  0  0  0  0  0  0  0  0  0  0  0
    2.4496    6.3501   -8.3011 H   0  0  0  0  0  0  0  0  0  0  0  0
    2.7481    7.9556   -6.3848 H   0  0  0  0  0  0  0  0  0  0  0  0
   -7.4064    9.0464   -7.8486 H   0  0  0  0  0  0  0  0  0  0  0  0
   -4.6856    7.1752   -4.9571 H   0  0  0  0  0  0  0  0  0  0  0  0
   -2.9015    8.7961   -5.6023 H   0  0  0  0  0  0  0  0  0  0  0  0
   -4.6864   15.3419   -7.5231 H   0  0  0  0  0  0  0  0  0  0  0  0
    1.0003    6.9729  -10.2654 H   0  0  0  0  0  0  0  0  0  0  0  0
  1  2  2  0
  1 21  1  0
  2  3  1  0
  3  4  2  0
  3 23  1  0
  4  5  1  0
  4  6  1  0
  5 20  1  0
  5 21  2  0
  6 19  1  0
  6 22  2  0
  7 23  1  0
  7 24  2  0
  7 25  1  0
  8  9  2  0
  8 28  1  0
  9 26  1  0
 10 11  1  0
 11 12  2  0
 11 19  1  0
 12 13  1  0
 13 14  1  0
 13 17  2  0
 14 15  1  0
 14 16  2  0
 17 18  1  0
 18 19  2  0
 22 23  1  0
 25 26  2  0
 25 29  1  0
 26 27  1  0
 28 29  2  0
 29 30  1  0
 30 31  1  6
 30 32  1  0
 30 33  1  0
  1 34  1  0
  2 35  1  0
  8 36  1  0
  9 37  1  0
 12 38  1  0
 17 39  1  0
 18 40  1  0
 21 41  1  0
 28 42  1  0
M  CHG  1  15  -1
M  END
>  <filename_input>  (19) 
8FAV_4Y5_docked.sdf

>  <pdb_id>  (19) 
8FAV_4Y5

>  <pose_rank>  (19) 
18

>  <num_atoms_heavy>  (19) 
33

>  <num_torsions>  (19) 
4

>  <pose>  (19) 
[-2.63044815913866, 14.981587616911835, -8.138751149855496, -0.8473732921783588, -1.187800978415791, 3.1594886960081707, -0.5251115305284637, -2.8445214925599123, -0.09616988838364438, -2.3871915470582312]

>  <energy>  (19) 
-469.1409440902108

>  <inter_energy>  (19) 
-495.16726762891176

>  <intra_energy>  (19) 
51.37360650115983

>  <rmsd>  (19) 
7.49316

>  <sdf_rank>  (19) 
0

$$$$

     RDKit          3D

 42 45  0  0  0  0  0  0  0  0999 V2000
   -1.3066    6.4539  -15.7685 C   0  0  0  0  0  0  0  0  0  0  0  0
   -1.2315    6.8243  -14.4011 C   0  0  0  0  0  0  0  0  0  0  0  0
   -0.1636    7.6721  -13.9515 C   0  0  0  0  0  0  0  0  0  0  0  0
    0.8203    8.1179  -14.8860 C   0  0  0  0  0  0  0  0  0  0  0  0
    0.7555    7.6899  -16.2474 C   0  0  0  0  0  0  0  0  0  0  0  0
    1.7614    8.9612  -14.0969 C   0  0  0  0  0  0  0  0  0  0  0  0
   -0.4410    8.0999  -11.5289 C   0  0  0  0  0  0  0  0  0  0  0  0
    1.3195   10.0367   -8.0350 C   0  0  0  0  0  0  0  0  0  0  0  0
    1.7335    8.7331   -8.4334 C   0  0  0  0  0  0  0  0  0  0  0  0
    1.6657   11.0767  -15.9945 F   0  0  0  0  0  0  0  0  0  0  0  0
    2.8726   10.7215  -15.4880 C   0  0  0  0  0  0  0  0  0  0  0  0
    3.9839   11.3919  -15.8756 C   0  0  0  0  0  0  0  0  0  0  0  0
    5.2599   11.0463  -15.3381 C   0  0  0  0  0  0  0  0  0  0  0  0
    6.4202   11.7834  -15.7643 C   0  0  0  0  0  0  0  0  0  0  0  0
    7.4492   11.2081  -16.0803 O   0  0  0  0  0  0  0  0  0  0  0  0
    6.3893   13.1193  -15.7442 O   0  0  0  0  0  0  0  0  0  0  0  0
    5.3770    9.9754  -14.3821 C   0  0  0  0  0  0  0  0  0  0  0  0
    4.2435    9.2864  -13.9868 C   0  0  0  0  0  0  0  0  0  0  0  0
    2.9650    9.6507  -14.5552 C   0  0  0  0  0  0  0  0  0  0  0  0
    1.6588    8.1281  -17.1389 F   0  0  0  0  0  0  0  0  0  0  0  0
   -0.2971    6.8555  -16.6695 C   0  0  0  0  0  0  0  0  0  0  0  0
    1.3076    9.0208  -12.8839 N   0  0  0  0  0  0  0  0  0  0  0  0
    0.1907    8.2395  -12.7190 N   0  0  0  0  0  0  0  0  0  0  0  0
   -1.4204    7.3765  -11.4090 O   0  0  0  0  0  0  0  0  0  0  0  0
    0.1293    8.7899  -10.3196 C   0  0  0  0  0  0  0  0  0  0  0  0
    1.1526    8.1093   -9.5451 C   0  0  0  0  0  0  0  0  0  0  0  0
    1.6683    6.5231  -10.0135 Cl  0  0  0  0  0  0  0  0  0  0  0  0
    0.3507   10.7471   -8.7992 C   0  0  0  0  0  0  0  0  0  0  0  0
   -0.2347   10.1448   -9.9725 C   0  0  0  0  0  0  0  0  0  0  0  0
   -1.2291   10.9519  -10.8338 C   0  0  1  0  0  0  0  0  0  0  0  0
   -0.5706   11.5121  -11.8965 F   0  0  0  0  0  0  0  0  0  0  0  0
   -2.2122   10.1214  -11.3279 F   0  0  0  0  0  0  0  0  0  0  0  0
   -1.7996   11.9107  -10.0880 F   0  0  0  0  0  0  0  0  0  0  0  0
   -2.1542    5.8518  -16.1277 H   0  0  0  0  0  0  0  0  0  0  0  0
   -1.9881    6.4637  -13.6886 H   0  0  0  0  0  0  0  0  0  0  0  0
    1.7502   10.4964   -7.1332 H   0  0  0  0  0  0  0  0  0  0  0  0
    2.5163    8.2117   -7.8630 H   0  0  0  0  0  0  0  0  0  0  0  0
    3.9024   12.2075  -16.6092 H   0  0  0  0  0  0  0  0  0  0  0  0
    6.3605    9.7070  -13.9690 H   0  0  0  0  0  0  0  0  0  0  0  0
    4.3145    8.4726  -13.2501 H   0  0  0  0  0  0  0  0  0  0  0  0
   -0.3332    6.5124  -17.7140 H   0  0  0  0  0  0  0  0  0  0  0  0
    0.0472   11.7594   -8.4938 H   0  0  0  0  0  0  0  0  0  0  0  0
  1  2  2  0
  1 21  1  0
  2  3  1  0
  3  4  2  0
  3 23  1  0
  4  5  1  0
  4  6  1  0
  5 20  1  0
  5 21  2  0
  6 19  1  0
  6 22  2  0
  7 23  1  0
  7 24  2  0
  7 25  1  0
  8  9  2  0
  8 28  1  0
  9 26  1  0
 10 11  1  0
 11 12  2  0
 11 19  1  0
 12 13  1  0
 13 14  1  0
 13 17  2  0
 14 15  1  0
 14 16  2  0
 17 18  1  0
 18 19  2  0
 22 23  1  0
 25 26  2  0
 25 29  1  0
 26 27  1  0
 28 29  2  0
 29 30  1  0
 30 31  1  6
 30 32  1  0
 30 33  1  0
  1 34  1  0
  2 35  1  0
  8 36  1  0
  9 37  1  0
 12 38  1  0
 17 39  1  0
 18 40  1  0
 21 41  1  0
 28 42  1  0
M  CHG  1  15  -1
M  END
>  <filename_input>  (20) 
8FAV_4Y5_docked.sdf

>  <pdb_id>  (20) 
8FAV_4Y5

>  <pose_rank>  (20) 
19

>  <num_atoms_heavy>  (20) 
33

>  <num_torsions>  (20) 
4

>  <pose>  (20) 
[-1.3065775589328144, 6.453919474389382, -15.768529239803772, 0.539154967104329, 1.4380989451801511, 0.7624150179725602, 5.985540073739183, 1.372710487226623, -6.116904596199718, 0.7753635093295793]

>  <energy>  (20) 
-312.2905399567427

>  <inter_energy>  (20) 
-324.5490770015221

>  <intra_energy>  (20) 
22.80822458619205

>  <rmsd>  (20) 
8.22745

>  <sdf_rank>  (20) 
0

$$$$

     RDKit          3D

 42 45  0  0  0  0  0  0  0  0999 V2000
   -0.7574    6.6740  -16.1662 C   0  0  0  0  0  0  0  0  0  0  0  0
   -0.8467    7.1179  -14.8217 C   0  0  0  0  0  0  0  0  0  0  0  0
    0.1898    7.9487  -14.2768 C   0  0  0  0  0  0  0  0  0  0  0  0
    1.3074    8.3033  -15.0924 C   0  0  0  0  0  0  0  0  0  0  0  0
    1.4034    7.8019  -16.4267 C   0  0  0  0  0  0  0  0  0  0  0  0
    2.1733    9.1535  -14.2283 C   0  0  0  0  0  0  0  0  0  0  0  0
   -0.3849    8.5227  -11.9381 C   0  0  0  0  0  0  0  0  0  0  0  0
    0.7824   10.7314   -8.3581 C   0  0  0  0  0  0  0  0  0  0  0  0
    0.0281   11.3598   -9.3903 C   0  0  0  0  0  0  0  0  0  0  0  0
    4.2017    7.7630  -15.6558 F   0  0  0  0  0  0  0  0  0  0  0  0
    4.4369    9.0485  -15.2932 C   0  0  0  0  0  0  0  0  0  0  0  0
    5.6071    9.6371  -15.6378 C   0  0  0  0  0  0  0  0  0  0  0  0
    5.8642   10.9953  -15.2833 C   0  0  0  0  0  0  0  0  0  0  0  0
    7.1141   11.5940  -15.6715 C   0  0  0  0  0  0  0  0  0  0  0  0
    7.4274   12.7060  -15.2782 O   0  0  0  0  0  0  0  0  0  0  0  0
    7.9077   10.9494  -16.5322 O   0  0  0  0  0  0  0  0  0  0  0  0
    4.8819   11.7504  -14.5489 C   0  0  0  0  0  0  0  0  0  0  0  0
    3.6865   11.1504  -14.1923 C   0  0  0  0  0  0  0  0  0  0  0  0
    3.4567    9.7699  -14.5556 C   0  0  0  0  0  0  0  0  0  0  0  0
    2.4352    8.1545  -17.2101 F   0  0  0  0  0  0  0  0  0  0  0  0
    0.3790    6.9855  -16.9430 C   0  0  0  0  0  0  0  0  0  0  0  0
    1.5668    9.2987  -13.0916 N   0  0  0  0  0  0  0  0  0  0  0  0
    0.4038    8.5709  -13.0384 N   0  0  0  0  0  0  0  0  0  0  0  0
   -1.4032    7.8450  -11.9140 O   0  0  0  0  0  0  0  0  0  0  0  0
    0.0515    9.2579  -10.7000 C   0  0  0  0  0  0  0  0  0  0  0  0
   -0.3287   10.6513  -10.5449 C   0  0  0  0  0  0  0  0  0  0  0  0
   -1.2452   11.4330  -11.7899 Cl  0  0  0  0  0  0  0  0  0  0  0  0
    1.1322    9.3551   -8.4609 C   0  0  0  0  0  0  0  0  0  0  0  0
    0.7427    8.5901   -9.6207 C   0  0  0  0  0  0  0  0  0  0  0  0
    1.0640    7.0820   -9.6880 C   0  0  1  0  0  0  0  0  0  0  0  0
    0.9175    6.5228   -8.4459 F   0  0  0  0  0  0  0  0  0  0  0  0
    0.1932    6.4488  -10.5488 F   0  0  0  0  0  0  0  0  0  0  0  0
    2.3199    6.9057  -10.1273 F   0  0  0  0  0  0  0  0  0  0  0  0
   -1.5766    6.0852  -16.6046 H   0  0  0  0  0  0  0  0  0  0  0  0
   -1.7060    6.8271  -14.1997 H   0  0  0  0  0  0  0  0  0  0  0  0
    1.0959   11.3119   -7.4779 H   0  0  0  0  0  0  0  0  0  0  0  0
   -0.2770   12.4109   -9.2798 H   0  0  0  0  0  0  0  0  0  0  0  0
    6.3639    9.0648  -16.1944 H   0  0  0  0  0  0  0  0  0  0  0  0
    5.0803   12.7966  -14.2733 H   0  0  0  0  0  0  0  0  0  0  0  0
    2.9218   11.7163  -13.6401 H   0  0  0  0  0  0  0  0  0  0  0  0
    0.4655    6.5856  -17.9641 H   0  0  0  0  0  0  0  0  0  0  0  0
    1.7018    8.8729   -7.6528 H   0  0  0  0  0  0  0  0  0  0  0  0
  1  2  2  0
  1 21  1  0
  2  3  1  0
  3  4  2  0
  3 23  1  0
  4  5  1  0
  4  6  1  0
  5 20  1  0
  5 21  2  0
  6 19  1  0
  6 22  2  0
  7 23  1  0
  7 24  2  0
  7 25  1  0
  8  9  2  0
  8 28  1  0
  9 26  1  0
 10 11  1  0
 11 12  2  0
 11 19  1  0
 12 13  1  0
 13 14  1  0
 13 17  2  0
 14 15  1  0
 14 16  2  0
 17 18  1  0
 18 19  2  0
 22 23  1  0
 25 26  2  0
 25 29  1  0
 26 27  1  0
 28 29  2  0
 29 30  1  0
 30 31  1  1
 30 32  1  0
 30 33  1  0
  1 34  1  0
  2 35  1  0
  8 36  1  0
  9 37  1  0
 12 38  1  0
 17 39  1  0
 18 40  1  0
 21 41  1  0
 28 42  1  0
M  CHG  1  15  -1
M  END
>  <filename_input>  (21) 
8FAV_4Y5_docked.sdf

>  <pdb_id>  (21) 
8FAV_4Y5

>  <pose_rank>  (21) 
20

>  <num_atoms_heavy>  (21) 
33

>  <num_torsions>  (21) 
4

>  <pose>  (21) 
[-0.7574497069884213, 6.6740084456847395, -16.16619812954846, -1.4045123884883561, -3.9603456567162465, -2.1403602309232235, 2.752647969462198, 0.33118554918037757, 4.576265265444083, 0.09772891409055691]

>  <energy>  (21) 
-241.19568909260497

>  <inter_energy>  (21) 
-313.8389356370771

>  <intra_energy>  (21) 
72.06634619125148

>  <rmsd>  (21) 
8.513

>  <sdf_rank>  (21) 
0

$$$$

     RDKit          3D

 42 45  0  0  0  0  0  0  0  0999 V2000
    0.3725    7.3393  -10.7911 C   0  0  0  0  0  0  0  0  0  0  0  0
    1.0970    7.4538   -9.5767 C   0  0  0  0  0  0  0  0  0  0  0  0
    0.7810    8.5100   -8.6569 C   0  0  0  0  0  0  0  0  0  0  0  0
   -0.2490    9.4431   -8.9859 C   0  0  0  0  0  0  0  0  0  0  0  0
   -0.9298    9.3410  -10.2377 C   0  0  0  0  0  0  0  0  0  0  0  0
   -0.3112   10.3856   -7.8338 C   0  0  0  0  0  0  0  0  0  0  0  0
    2.2430    8.3103   -6.6690 C   0  0  0  0  0  0  0  0  0  0  0  0
    3.3257    9.9150   -2.7562 C   0  0  0  0  0  0  0  0  0  0  0  0
    2.8189    8.5901   -2.8873 C   0  0  0  0  0  0  0  0  0  0  0  0
   -0.3340   12.5513   -9.6761 F   0  0  0  0  0  0  0  0  0  0  0  0
   -1.1777   12.6007   -8.6154 C   0  0  0  0  0  0  0  0  0  0  0  0
   -2.0164   13.6553   -8.4766 C   0  0  0  0  0  0  0  0  0  0  0  0
   -2.9258   13.7149   -7.3785 C   0  0  0  0  0  0  0  0  0  0  0  0
   -3.8095   14.8451   -7.2640 C   0  0  0  0  0  0  0  0  0  0  0  0
   -3.4050   15.9199   -6.8508 O   0  0  0  0  0  0  0  0  0  0  0  0
   -5.1064   14.6917   -7.5477 O   0  0  0  0  0  0  0  0  0  0  0  0
   -2.9544   12.6551   -6.4036 C   0  0  0  0  0  0  0  0  0  0  0  0
   -2.0961   11.5779   -6.5410 C   0  0  0  0  0  0  0  0  0  0  0  0
   -1.1780   11.5482   -7.6575 C   0  0  0  0  0  0  0  0  0  0  0  0
   -1.9197   10.1956  -10.5420 F   0  0  0  0  0  0  0  0  0  0  0  0
   -0.6041    8.3007  -11.1288 C   0  0  0  0  0  0  0  0  0  0  0  0
    0.5434    9.9761   -6.9489 N   0  0  0  0  0  0  0  0  0  0  0  0
    1.2582    8.8919   -7.3948 N   0  0  0  0  0  0  0  0  0  0  0  0
    2.8784    7.3598   -7.1047 O   0  0  0  0  0  0  0  0  0  0  0  0
    2.6078    8.9031   -5.3351 C   0  0  0  0  0  0  0  0  0  0  0  0
    2.4565    8.0864   -4.1433 C   0  0  0  0  0  0  0  0  0  0  0  0
    1.8410    6.4731   -4.2826 Cl  0  0  0  0  0  0  0  0  0  0  0  0
    3.5267   10.7242   -3.9103 C   0  0  0  0  0  0  0  0  0  0  0  0
    3.2002   10.2163   -5.2209 C   0  0  0  0  0  0  0  0  0  0  0  0
    3.4903   11.0748   -6.4702 C   0  0  1  0  0  0  0  0  0  0  0  0
    2.3121   11.4117   -7.0826 F   0  0  0  0  0  0  0  0  0  0  0  0
    4.1333   12.2390   -6.1076 F   0  0  0  0  0  0  0  0  0  0  0  0
    4.2713   10.3892   -7.3195 F   0  0  0  0  0  0  0  0  0  0  0  0
    0.5726    6.4987  -11.4717 H   0  0  0  0  0  0  0  0  0  0  0  0
    1.8970    6.7366   -9.3409 H   0  0  0  0  0  0  0  0  0  0  0  0
    3.5627   10.3145   -1.7591 H   0  0  0  0  0  0  0  0  0  0  0  0
    2.7112    7.9568   -1.9944 H   0  0  0  0  0  0  0  0  0  0  0  0
   -1.9964   14.4706   -9.2147 H   0  0  0  0  0  0  0  0  0  0  0  0
   -3.6535   12.7015   -5.5556 H   0  0  0  0  0  0  0  0  0  0  0  0
   -2.1124   10.7555   -5.8107 H   0  0  0  0  0  0  0  0  0  0  0  0
   -1.1169    8.2365  -12.0998 H   0  0  0  0  0  0  0  0  0  0  0  0
    3.9326   11.7409   -3.8024 H   0  0  0  0  0  0  0  0  0  0  0  0
  1  2  2  0
  1 21  1  0
  2  3  1  0
  3  4  2  0
  3 23  1  0
  4  5  1  0
  4  6  1  0
  5 20  1  0
  5 21  2  0
  6 19  1  0
  6 22  2  0
  7 23  1  0
  7 24  2  0
  7 25  1  0
  8  9  2  0
  8 28  1  0
  9 26  1  0
 10 11  1  0
 11 12  2  0
 11 19  1  0
 12 13  1  0
 13 14  1  0
 13 17  2  0
 14 15  1  0
 14 16  2  0
 17 18  1  0
 18 19  2  0
 22 23  1  0
 25 26  2  0
 25 29  1  0
 26 27  1  0
 28 29  2  0
 29 30  1  0
 30 31  1  6
 30 32  1  0
 30 33  1  0
  1 34  1  0
  2 35  1  0
  8 36  1  0
  9 37  1  0
 12 38  1  0
 17 39  1  0
 18 40  1  0
 21 41  1  0
 28 42  1  0
M  CHG  1  15  -1
M  END
>  <filename_input>  (22) 
8FAV_4Y5_docked.sdf

>  <pdb_id>  (22) 
8FAV_4Y5

>  <pose_rank>  (22) 
21

>  <num_atoms_heavy>  (22) 
33

>  <num_torsions>  (22) 
4

>  <pose>  (22) 
[0.3725188120743626, 7.339349342944984, -10.791112972496428, 0.001281328378836273, 2.1358065241853943, 2.4468348306589784, 3.295138805478025, 3.9564789944034024, -1.9751669182210254, 1.763407206507307]

>  <energy>  (22) 
-603.6921510953348

>  <inter_energy>  (22) 
-683.9351645011884

>  <intra_energy>  (22) 
84.88870602454101

>  <rmsd>  (22) 
6.4288

>  <sdf_rank>  (22) 
0

$$$$

     RDKit          3D

 42 45  0  0  0  0  0  0  0  0999 V2000
    6.0890   20.7741  -11.5280 C   0  0  0  0  0  0  0  0  0  0  0  0
    6.2524   19.7661  -12.5128 C   0  0  0  0  0  0  0  0  0  0  0  0
    5.3076   18.6878  -12.5903 C   0  0  0  0  0  0  0  0  0  0  0  0
    4.2235   18.6357  -11.6617 C   0  0  0  0  0  0  0  0  0  0  0  0
    4.1078   19.6322  -10.6447 C   0  0  0  0  0  0  0  0  0  0  0  0
    3.4544   17.4112  -12.0205 C   0  0  0  0  0  0  0  0  0  0  0  0
    5.9410   17.1955  -14.4614 C   0  0  0  0  0  0  0  0  0  0  0  0
    4.8875   13.6331  -16.7541 C   0  0  0  0  0  0  0  0  0  0  0  0
    4.1784   14.8551  -16.9365 C   0  0  0  0  0  0  0  0  0  0  0  0
    1.0100   18.8592  -11.9028 F   0  0  0  0  0  0  0  0  0  0  0  0
    1.0474   17.6158  -11.3625 C   0  0  0  0  0  0  0  0  0  0  0  0
   -0.0734   17.0928  -10.8100 C   0  0  0  0  0  0  0  0  0  0  0  0
   -0.0591   15.7781  -10.2552 C   0  0  0  0  0  0  0  0  0  0  0  0
   -1.2687   15.2483   -9.6830 C   0  0  0  0  0  0  0  0  0  0  0  0
   -1.9905   15.9423   -8.9853 O   0  0  0  0  0  0  0  0  0  0  0  0
   -1.5653   13.9575   -9.8621 O   0  0  0  0  0  0  0  0  0  0  0  0
    1.1515   14.9979  -10.2725 C   0  0  0  0  0  0  0  0  0  0  0  0
    2.2992   15.5311  -10.8334 C   0  0  0  0  0  0  0  0  0  0  0  0
    2.2589   16.8695  -11.3790 C   0  0  0  0  0  0  0  0  0  0  0  0
    3.0753   19.6077   -9.7868 F   0  0  0  0  0  0  0  0  0  0  0  0
    5.0459   20.6803  -10.5819 C   0  0  0  0  0  0  0  0  0  0  0  0
    4.0177   16.8894  -13.0652 N   0  0  0  0  0  0  0  0  0  0  0  0
    5.1513   17.5739  -13.4278 N   0  0  0  0  0  0  0  0  0  0  0  0
    6.9586   17.8130  -14.7443 O   0  0  0  0  0  0  0  0  0  0  0  0
    5.5931   15.9433  -15.2194 C   0  0  0  0  0  0  0  0  0  0  0  0
    4.5092   15.9903  -16.1854 C   0  0  0  0  0  0  0  0  0  0  0  0
    3.6346   17.4671  -16.4205 Cl  0  0  0  0  0  0  0  0  0  0  0  0
    5.9829   13.5673  -15.8470 C   0  0  0  0  0  0  0  0  0  0  0  0
    6.3717   14.7326  -15.0900 C   0  0  0  0  0  0  0  0  0  0  0  0
    7.6053   14.6696  -14.1646 C   0  0  1  0  0  0  0  0  0  0  0  0
    7.2394   14.9937  -12.8847 F   0  0  0  0  0  0  0  0  0  0  0  0
    8.1246   13.3927  -14.1519 F   0  0  0  0  0  0  0  0  0  0  0  0
    8.5453   15.5205  -14.6044 F   0  0  0  0  0  0  0  0  0  0  0  0
    6.7775   21.6316  -11.5018 H   0  0  0  0  0  0  0  0  0  0  0  0
    7.0990   19.8104  -13.2137 H   0  0  0  0  0  0  0  0  0  0  0  0
    4.5875   12.7366  -17.3165 H   0  0  0  0  0  0  0  0  0  0  0  0
    3.3637   14.9077  -17.6738 H   0  0  0  0  0  0  0  0  0  0  0  0
   -1.0001   17.6850  -10.7890 H   0  0  0  0  0  0  0  0  0  0  0  0
    1.1639   13.9853   -9.8430 H   0  0  0  0  0  0  0  0  0  0  0  0
    3.2292   14.9445  -10.8635 H   0  0  0  0  0  0  0  0  0  0  0  0
    4.9648   21.4351   -9.7858 H   0  0  0  0  0  0  0  0  0  0  0  0
    6.5353   12.6241  -15.7227 H   0  0  0  0  0  0  0  0  0  0  0  0
  1  2  2  0
  1 21  1  0
  2  3  1  0
  3  4  2  0
  3 23  1  0
  4  5  1  0
  4  6  1  0
  5 20  1  0
  5 21  2  0
  6 19  1  0
  6 22  2  0
  7 23  1  0
  7 24  2  0
  7 25  1  0
  8  9  2  0
  8 28  1  0
  9 26  1  0
 10 11  1  0
 11 12  2  0
 11 19  1  0
 12 13  1  0
 13 14  1  0
 13 17  2  0
 14 15  1  0
 14 16  2  0
 17 18  1  0
 18 19  2  0
 22 23  1  0
 25 26  2  0
 25 29  1  0
 26 27  1  0
 28 29  2  0
 29 30  1  0
 30 31  1  1
 30 32  1  0
 30 33  1  0
  1 34  1  0
  2 35  1  0
  8 36  1  0
  9 37  1  0
 12 38  1  0
 17 39  1  0
 18 40  1  0
 21 41  1  0
 28 42  1  0
M  CHG  1  15  -1
M  END
>  <filename_input>  (23) 
8FAV_4Y5_docked.sdf

>  <pdb_id>  (23) 
8FAV_4Y5

>  <pose_rank>  (23) 
22

>  <num_atoms_heavy>  (23) 
33

>  <num_torsions>  (23) 
4

>  <pose>  (23) 
[6.088994444171458, 20.77414469829927, -11.527993732617203, 0.46188011236231885, 1.8150594065901815, -3.0565098330262366, -3.716674334385057, -2.4598702252461155, 0.11365627282359166, -3.901299619200968]

>  <energy>  (23) 
-170.37109330387344

>  <inter_energy>  (23) 
-193.95044594604136

>  <intra_energy>  (23) 
25.412050489908236

>  <rmsd>  (23) 
10.7386

>  <sdf_rank>  (23) 
0

$$$$

     RDKit          3D

 42 45  0  0  0  0  0  0  0  0999 V2000
    2.5836    9.2109  -16.7422 C   0  0  0  0  0  0  0  0  0  0  0  0
    3.5227   10.2453  -16.4957 C   0  0  0  0  0  0  0  0  0  0  0  0
    3.3423   11.1157  -15.3682 C   0  0  0  0  0  0  0  0  0  0  0  0
    2.2081   10.9385  -14.5184 C   0  0  0  0  0  0  0  0  0  0  0  0
    1.2467    9.9244  -14.8154 C   0  0  0  0  0  0  0  0  0  0  0  0
    2.3306   11.9910  -13.4712 C   0  0  0  0  0  0  0  0  0  0  0  0
    5.2172   12.7305  -15.2899 C   0  0  0  0  0  0  0  0  0  0  0  0
    7.0579   16.0565  -13.1434 C   0  0  0  0  0  0  0  0  0  0  0  0
    7.4606   14.7132  -12.8926 C   0  0  0  0  0  0  0  0  0  0  0  0
    1.4071    9.9581  -11.7105 F   0  0  0  0  0  0  0  0  0  0  0  0
    1.0060   11.2340  -11.4860 C   0  0  0  0  0  0  0  0  0  0  0  0
    0.2062   11.5070  -10.4274 C   0  0  0  0  0  0  0  0  0  0  0  0
   -0.2093   12.8463  -10.1628 C   0  0  0  0  0  0  0  0  0  0  0  0
   -1.0525   13.1042   -9.0253 C   0  0  0  0  0  0  0  0  0  0  0  0
   -1.1389   12.2996   -8.1117 O   0  0  0  0  0  0  0  0  0  0  0  0
   -1.8046   14.2088   -9.0067 O   0  0  0  0  0  0  0  0  0  0  0  0
    0.2141   13.9196  -11.0249 C   0  0  0  0  0  0  0  0  0  0  0  0
    1.0287   13.6431  -12.1094 C   0  0  0  0  0  0  0  0  0  0  0  0
    1.4261   12.2757  -12.3598 C   0  0  0  0  0  0  0  0  0  0  0  0
    0.1936    9.7313  -14.0051 F   0  0  0  0  0  0  0  0  0  0  0  0
    1.4383    9.0824  -15.9275 C   0  0  0  0  0  0  0  0  0  0  0  0
    3.4383   12.6290  -13.6877 N   0  0  0  0  0  0  0  0  0  0  0  0
    4.0655   12.1883  -14.8268 N   0  0  0  0  0  0  0  0  0  0  0  0
    5.7389   12.3313  -16.3221 O   0  0  0  0  0  0  0  0  0  0  0  0
    5.8153   13.8996  -14.5555 C   0  0  0  0  0  0  0  0  0  0  0  0
    6.8541   13.6485  -13.5716 C   0  0  0  0  0  0  0  0  0  0  0  0
    7.3565   12.0216  -13.2521 Cl  0  0  0  0  0  0  0  0  0  0  0  0
    6.0738   16.3380  -14.1331 C   0  0  0  0  0  0  0  0  0  0  0  0
    5.4615   15.2635  -14.8766 C   0  0  0  0  0  0  0  0  0  0  0  0
    4.4498   15.5853  -15.9969 C   0  0  1  0  0  0  0  0  0  0  0  0
    5.0140   15.3237  -17.2176 F   0  0  0  0  0  0  0  0  0  0  0  0
    3.3279   14.7953  -15.8648 F   0  0  0  0  0  0  0  0  0  0  0  0
    4.0882   16.8757  -15.9235 F   0  0  0  0  0  0  0  0  0  0  0  0
    2.7486    8.5067  -17.5710 H   0  0  0  0  0  0  0  0  0  0  0  0
    4.3850   10.3798  -17.1652 H   0  0  0  0  0  0  0  0  0  0  0  0
    7.5092   16.8797  -12.5701 H   0  0  0  0  0  0  0  0  0  0  0  0
    8.2548   14.5102  -12.1591 H   0  0  0  0  0  0  0  0  0  0  0  0
   -0.1250   10.6914   -9.7678 H   0  0  0  0  0  0  0  0  0  0  0  0
   -0.1076   14.9519  -10.8230 H   0  0  0  0  0  0  0  0  0  0  0  0
    1.3690   14.4528  -12.7716 H   0  0  0  0  0  0  0  0  0  0  0  0
    0.6863    8.3152  -16.1642 H   0  0  0  0  0  0  0  0  0  0  0  0
    5.7790   17.3790  -14.3317 H   0  0  0  0  0  0  0  0  0  0  0  0
  1  2  2  0
  1 21  1  0
  2  3  1  0
  3  4  2  0
  3 23  1  0
  4  5  1  0
  4  6  1  0
  5 20  1  0
  5 21  2  0
  6 19  1  0
  6 22  2  0
  7 23  1  0
  7 24  2  0
  7 25  1  0
  8  9  2  0
  8 28  1  0
  9 26  1  0
 10 11  1  0
 11 12  2  0
 11 19  1  0
 12 13  1  0
 13 14  1  0
 13 17  2  0
 14 15  1  0
 14 16  2  0
 17 18  1  0
 18 19  2  0
 22 23  1  0
 25 26  2  0
 25 29  1  0
 26 27  1  0
 28 29  2  0
 29 30  1  0
 30 31  1  6
 30 32  1  0
 30 33  1  0
  1 34  1  0
  2 35  1  0
  8 36  1  0
  9 37  1  0
 12 38  1  0
 17 39  1  0
 18 40  1  0
 21 41  1  0
 28 42  1  0
M  CHG  1  15  -1
M  END
>  <filename_input>  (24) 
8FAV_4Y5_docked.sdf

>  <pdb_id>  (24) 
8FAV_4Y5

>  <pose_rank>  (24) 
23

>  <num_atoms_heavy>  (24) 
33

>  <num_torsions>  (24) 
4

>  <pose>  (24) 
[2.5835646169671587, 9.210893396188135, -16.742225681520495, -0.1426675431619198, -1.1833615407809726, -1.2679401144993943, 2.8858606793926556, 1.575667929937024, -0.09099425673775248, -2.8401167996337056]

>  <energy>  (24) 
-154.54101193072

>  <inter_energy>  (24) 
-158.82509176996172

>  <intra_energy>  (24) 
33.27206381569618

>  <rmsd>  (24) 
8.46564

>  <sdf_rank>  (24) 
0

$$$$

     RDKit          3D

 42 45  0  0  0  0  0  0  0  0999 V2000
   -6.3887    1.9063   -6.3246 C   0  0  0  0  0  0  0  0  0  0  0  0
   -7.1098    3.0846   -6.0018 C   0  0  0  0  0  0  0  0  0  0  0  0
   -6.7581    3.8350   -4.8294 C   0  0  0  0  0  0  0  0  0  0  0  0
   -5.6959    3.3743   -3.9931 C   0  0  0  0  0  0  0  0  0  0  0  0
   -5.0179    2.1569   -4.3079 C   0  0  0  0  0  0  0  0  0  0  0  0
   -5.6020    4.3700   -2.8889 C   0  0  0  0  0  0  0  0  0  0  0  0
   -8.2280    5.8210   -4.6738 C   0  0  0  0  0  0  0  0  0  0  0  0
   -9.2136    9.3115   -2.2442 C   0  0  0  0  0  0  0  0  0  0  0  0
   -9.4460    7.9932   -1.7568 C   0  0  0  0  0  0  0  0  0  0  0  0
   -6.5302    4.0409   -0.2214 F   0  0  0  0  0  0  0  0  0  0  0  0
   -5.1967    4.1804   -0.4255 C   0  0  0  0  0  0  0  0  0  0  0  0
   -4.3502    4.1348    0.6310 C   0  0  0  0  0  0  0  0  0  0  0  0
   -2.9423    4.2589    0.4340 C   0  0  0  0  0  0  0  0  0  0  0  0
   -2.0691    4.1981    1.5764 C   0  0  0  0  0  0  0  0  0  0  0  0
   -1.6100    3.1346    1.9607 O   0  0  0  0  0  0  0  0  0  0  0  0
   -1.8172    5.3147    2.2662 O   0  0  0  0  0  0  0  0  0  0  0  0
   -2.4098    4.4404   -0.8919 C   0  0  0  0  0  0  0  0  0  0  0  0
   -3.2727    4.4908   -1.9730 C   0  0  0  0  0  0  0  0  0  0  0  0
   -4.6954    4.3727   -1.7434 C   0  0  0  0  0  0  0  0  0  0  0  0
   -3.9985    1.7323   -3.5441 F   0  0  0  0  0  0  0  0  0  0  0  0
   -5.3788    1.4324   -5.4599 C   0  0  0  0  0  0  0  0  0  0  0  0
   -6.4712    5.3015   -3.1293 N   0  0  0  0  0  0  0  0  0  0  0  0
   -7.2229    5.0214   -4.2436 N   0  0  0  0  0  0  0  0  0  0  0  0
   -8.8958    5.5310   -5.6571 O   0  0  0  0  0  0  0  0  0  0  0  0
   -8.5732    7.0469   -3.8726 C   0  0  0  0  0  0  0  0  0  0  0  0
   -9.1442    6.8771   -2.5477 C   0  0  0  0  0  0  0  0  0  0  0  0
   -9.4350    5.2818   -1.9381 Cl  0  0  0  0  0  0  0  0  0  0  0  0
   -8.6145    9.5097   -3.5206 C   0  0  0  0  0  0  0  0  0  0  0  0
   -8.2559    8.3772   -4.3397 C   0  0  0  0  0  0  0  0  0  0  0  0
   -7.5412    8.6023   -5.6890 C   0  0  1  0  0  0  0  0  0  0  0  0
   -7.3522    9.9438   -5.8931 F   0  0  0  0  0  0  0  0  0  0  0  0
   -6.3054    7.9917   -5.6795 F   0  0  0  0  0  0  0  0  0  0  0  0
   -8.2782    8.0844   -6.6838 F   0  0  0  0  0  0  0  0  0  0  0  0
   -6.6173    1.3603   -7.2518 H   0  0  0  0  0  0  0  0  0  0  0  0
   -7.9346    3.4218   -6.6469 H   0  0  0  0  0  0  0  0  0  0  0  0
   -9.4981   10.1799   -1.6319 H   0  0  0  0  0  0  0  0  0  0  0  0
   -9.8663    7.8504   -0.7503 H   0  0  0  0  0  0  0  0  0  0  0  0
   -4.7504    4.0014    1.6469 H   0  0  0  0  0  0  0  0  0  0  0  0
   -1.3249    4.5384   -1.0443 H   0  0  0  0  0  0  0  0  0  0  0  0
   -2.8815    4.6189   -2.9930 H   0  0  0  0  0  0  0  0  0  0  0  0
   -4.8677    0.4857   -5.6888 H   0  0  0  0  0  0  0  0  0  0  0  0
   -8.4243   10.5304   -3.8837 H   0  0  0  0  0  0  0  0  0  0  0  0
  1  2  2  0
  1 21  1  0
  2  3  1  0
  3  4  2  0
  3 23  1  0
  4  5  1  0
  4  6  1  0
  5 20  1  0
  5 21  2  0
  6 19  1  0
  6 22  2  0
  7 23  1  0
  7 24  2  0
  7 25  1  0
  8  9  2  0
  8 28  1  0
  9 26  1  0
 10 11  1  0
 11 12  2  0
 11 19  1  0
 12 13  1  0
 13 14  1  0
 13 17  2  0
 14 15  1  0
 14 16  2  0
 17 18  1  0
 18 19  2  0
 22 23  1  0
 25 26  2  0
 25 29  1  0
 26 27  1  0
 28 29  2  0
 29 30  1  0
 30 31  1  6
 30 32  1  0
 30 33  1  0
  1 34  1  0
  2 35  1  0
  8 36  1  0
  9 37  1  0
 12 38  1  0
 17 39  1  0
 18 40  1  0
 21 41  1  0
 28 42  1  0
M  CHG  1  15  -1
M  END
>  <filename_input>  (25) 
8FAV_4Y5_docked.sdf

>  <pdb_id>  (25) 
8FAV_4Y5

>  <pose_rank>  (25) 
24

>  <num_atoms_heavy>  (25) 
33

>  <num_torsions>  (25) 
4

>  <pose>  (25) 
[-6.388655961568211, 1.9063289082573445, -6.3246099772660145, -0.8340303942998177, -4.648627633207611, -3.934585628207383, 0.04512727886066777, 5.967650334248693, 3.3384892797090124, -1.5957943279583946]

>  <energy>  (25) 
-17.694263278159283

>  <inter_energy>  (25) 
-46.966534932945784

>  <intra_energy>  (25) 
33.246931873436914

>  <rmsd>  (25) 
10.1067

>  <sdf_rank>  (25) 
0

$$$$

     RDKit          3D

 42 45  0  0  0  0  0  0  0  0999 V2000
    0.2450    7.8860  -10.4850 C   0  0  0  0  0  0  0  0  0  0  0  0
   -0.3990    9.1290  -10.2550 C   0  0  0  0  0  0  0  0  0  0  0  0
   -0.1040    9.8730   -9.0630 C   0  0  0  0  0  0  0  0  0  0  0  0
    0.8230    9.3420   -8.1150 C   0  0  0  0  0  0  0  0  0  0  0  0
    1.4200    8.0640   -8.3410 C   0  0  0  0  0  0  0  0  0  0  0  0
    0.8910   10.3510   -7.0210 C   0  0  0  0  0  0  0  0  0  0  0  0
   -1.4020   11.9810   -9.0880 C   0  0  0  0  0  0  0  0  0  0  0  0
   -2.3250   15.5970   -6.8230 C   0  0  0  0  0  0  0  0  0  0  0  0
   -2.7670   14.3200   -6.3720 C   0  0  0  0  0  0  0  0  0  0  0  0
    3.7080    9.9640   -7.0280 F   0  0  0  0  0  0  0  0  0  0  0  0
    3.0850   10.1310   -5.8350 C   0  0  0  0  0  0  0  0  0  0  0  0
    3.8150   10.1340   -4.6940 C   0  0  0  0  0  0  0  0  0  0  0  0
    3.1800   10.3290   -3.4310 C   0  0  0  0  0  0  0  0  0  0  0  0
    3.9850   10.3350   -2.2380 C   0  0  0  0  0  0  0  0  0  0  0  0
    3.4760   10.4700   -1.1370 O   0  0  0  0  0  0  0  0  0  0  0  0
    5.3150   10.2630   -2.3470 O   0  0  0  0  0  0  0  0  0  0  0  0
    1.7540   10.5180   -3.3590 C   0  0  0  0  0  0  0  0  0  0  0  0
    1.0050   10.5120   -4.5230 C   0  0  0  0  0  0  0  0  0  0  0  0
    1.6730   10.3020   -5.7880 C   0  0  0  0  0  0  0  0  0  0  0  0
    2.3150    7.5710   -7.4700 F   0  0  0  0  0  0  0  0  0  0  0  0
    1.1160    7.3470   -9.5140 C   0  0  0  0  0  0  0  0  0  0  0  0
    0.1360   11.3480   -7.3630 N   0  0  0  0  0  0  0  0  0  0  0  0
   -0.5200   11.1080   -8.5450 N   0  0  0  0  0  0  0  0  0  0  0  0
   -1.9890   11.7270  -10.1310 O   0  0  0  0  0  0  0  0  0  0  0  0
   -1.7180   13.2500   -8.3440 C   0  0  0  0  0  0  0  0  0  0  0  0
   -2.4830   13.1650   -7.1120 C   0  0  0  0  0  0  0  0  0  0  0  0
   -3.0300   11.6210   -6.5480 Cl  0  0  0  0  0  0  0  0  0  0  0  0
   -1.5360   15.7080   -8.0030 C   0  0  0  0  0  0  0  0  0  0  0  0
   -1.1940   14.5300   -8.7630 C   0  0  0  0  0  0  0  0  0  0  0  0
   -0.2780   14.6540   -9.9990 C   0  0  1  0  0  0  0  0  0  0  0  0
    0.4010   15.8430   -9.9530 F   0  0  0  0  0  0  0  0  0  0  0  0
    0.6470   13.6320  -10.0090 F   0  0  0  0  0  0  0  0  0  0  0  0
   -1.0160   14.5880  -11.1180 F   0  0  0  0  0  0  0  0  0  0  0  0
    0.0649    7.3406  -11.4231 H   0  0  0  0  0  0  0  0  0  0  0  0
   -1.1210    9.5209  -10.9865 H   0  0  0  0  0  0  0  0  0  0  0  0
   -2.5944   16.5011   -6.2572 H   0  0  0  0  0  0  0  0  0  0  0  0
   -3.3364   14.2402   -5.4342 H   0  0  0  0  0  0  0  0  0  0  0  0
    4.9039    9.9852   -4.7413 H   0  0  0  0  0  0  0  0  0  0  0  0
    1.2635   10.6661   -2.3856 H   0  0  0  0  0  0  0  0  0  0  0  0
   -0.0837   10.6649   -4.4861 H   0  0  0  0  0  0  0  0  0  0  0  0
    1.5627    6.3549   -9.6756 H   0  0  0  0  0  0  0  0  0  0  0  0
   -1.1857   16.6959   -8.3367 H   0  0  0  0  0  0  0  0  0  0  0  0
  1  2  2  0
  1 21  1  0
  2  3  1  0
  3  4  2  0
  3 23  1  0
  4  5  1  0
  4  6  1  0
  5 20  1  0
  5 21  2  0
  6 19  1  0
  6 22  2  0
  7 23  1  0
  7 24  2  0
  7 25  1  0
  8  9  2  0
  8 28  1  0
  9 26  1  0
 10 11  1  0
 11 12  2  0
 11 19  1  0
 12 13  1  0
 13 14  1  0
 13 17  2  0
 14 15  1  0
 14 16  2  0
 17 18  1  0
 18 19  2  0
 22 23  1  0
 25 26  2  0
 25 29  1  0
 26 27  1  0
 28 29  2  0
 29 30  1  0
 30 31  1  1
 30 32  1  0
 30 33  1  0
  1 34  1  0
  2 35  1  0
  8 36  1  0
  9 37  1  0
 12 38  1  0
 17 39  1  0
 18 40  1  0
 21 41  1  0
 28 42  1  0
M  CHG  1  15  -1
M  END
>  <filename_input>  (26) 
8FAV_4Y5_docked.sdf

>  <pdb_id>  (26) 
8FAV_4Y5

>  <pose_rank>  (26) 
25

>  <num_atoms_heavy>  (26) 
33

>  <num_torsions>  (26) 
4

>  <pose>  (26) 
[0.245, 7.886, -10.485, 1e-06, 1e-06, 1e-06, 0.0, 0.0, 0.0, 0.0]

>  <energy>  (26) 
-1202.3409572732764

>  <inter_energy>  (26) 
-1245.676660206925

>  <intra_energy>  (26) 
34.36118037438308

>  <rmsd>  (26) 
0.0

>  <sdf_rank>  (26) 
0

$$$$
