
     RDKit          3D

 51 54  0  0  0  0  0  0  0  0999 V2000
  -15.3760    5.4513  -19.6481 N   0  0  0  0  0  0  0  0  0  0  0  0
  -18.0385    5.0186  -16.6227 N   0  0  0  0  0  0  0  0  0  0  0  0
  -17.2450    5.0987  -17.7330 C   0  0  0  0  0  0  0  0  0  0  0  0
  -16.1383    6.0245  -15.9765 C   0  0  0  0  0  0  0  0  0  0  0  0
  -17.3607    5.5853  -15.5662 C   0  0  0  0  0  0  0  0  0  0  0  0
  -12.8231    6.3046  -19.2664 C   0  0  0  0  0  0  0  0  0  0  0  0
  -13.5503    7.4270  -17.1766 C   0  0  1  0  0  0  0  0  0  0  0  0
  -12.5905    9.6515  -16.4944 C   0  0  0  0  0  0  0  0  0  0  0  0
  -12.9358    7.5734  -13.8365 C   0  0  0  0  0  0  0  0  0  0  0  0
  -11.6643    7.1704  -11.0029 C   0  0  0  0  0  0  0  0  0  0  0  0
  -11.1923    4.9605  -10.2435 C   0  0  0  0  0  0  0  0  0  0  0  0
  -12.3997    7.4013   -9.8501 C   0  0  0  0  0  0  0  0  0  0  0  0
  -16.5587    4.8541  -19.8401 C   0  0  0  0  0  0  0  0  0  0  0  0
  -11.7100    8.9156  -15.5036 C   0  0  0  0  0  0  0  0  0  0  0  0
  -12.6452    6.7559  -16.1367 C   0  0  0  0  0  0  0  0  0  0  0  0
  -12.5983    8.6218  -12.7911 C   0  0  0  0  0  0  0  0  0  0  0  0
  -11.0432    5.9434  -11.2027 C   0  0  0  0  0  0  0  0  0  0  0  0
  -11.9214    5.1513   -9.0879 C   0  0  0  0  0  0  0  0  0  0  0  0
  -12.5202    6.3825   -8.9235 C   0  0  0  0  0  0  0  0  0  0  0  0
  -15.0761    5.9118  -18.4099 C   0  0  0  0  0  0  0  0  0  0  0  0
  -16.0324    5.7315  -17.3729 C   0  0  0  0  0  0  0  0  0  0  0  0
  -12.9379    8.7363  -17.6672 C   0  0  0  0  0  0  0  0  0  0  0  0
  -17.5360    4.6496  -18.9646 N   0  0  0  0  0  0  0  0  0  0  0  0
  -13.8646    6.5000  -18.2711 N   0  0  0  0  0  0  0  0  0  0  0  0
  -12.4125    7.7113  -15.0574 N   0  0  0  0  0  0  0  0  0  0  0  0
  -11.5323    8.1666  -11.9232 N   0  0  0  0  0  0  0  0  0  0  0  0
  -13.7178    6.6600  -13.5680 O   0  0  0  0  0  0  0  0  0  0  0  0
  -13.4502    6.6650   -7.4882 Cl  0  0  0  0  0  0  0  0  0  0  0  0
  -10.4392    3.4153  -10.4892 Cl  0  0  0  0  0  0  0  0  0  0  0  0
  -18.9811    4.6054  -16.5832 H   0  0  0  0  0  0  0  0  0  0  0  0
  -15.3759    6.5126  -15.3517 H   0  0  0  0  0  0  0  0  0  0  0  0
  -17.7497    5.6708  -14.5409 H   0  0  0  0  0  0  0  0  0  0  0  0
  -11.8626    6.1244  -18.7615 H   0  0  0  0  0  0  0  0  0  0  0  0
  -13.0750    5.4381  -19.8954 H   0  0  0  0  0  0  0  0  0  0  0  0
  -12.7438    7.2035  -19.8954 H   0  0  0  0  0  0  0  0  0  0  0  0
  -14.5064    7.6868  -16.6987 H   0  0  0  0  0  0  0  0  0  0  0  0
  -13.5169    9.9681  -15.9929 H   0  0  0  0  0  0  0  0  0  0  0  0
  -12.0502   10.5321  -16.8721 H   0  0  0  0  0  0  0  0  0  0  0  0
  -12.8781    8.3765   -9.6763 H   0  0  0  0  0  0  0  0  0  0  0  0
  -16.7459    4.4834  -20.8587 H   0  0  0  0  0  0  0  0  0  0  0  0
  -10.7630    8.6342  -15.9874 H   0  0  0  0  0  0  0  0  0  0  0  0
  -11.4916    9.5637  -14.6420 H   0  0  0  0  0  0  0  0  0  0  0  0
  -13.1371    5.8559  -15.7389 H   0  0  0  0  0  0  0  0  0  0  0  0
  -11.6910    6.4581  -16.5958 H   0  0  0  0  0  0  0  0  0  0  0  0
  -12.2801    9.5450  -13.2975 H   0  0  0  0  0  0  0  0  0  0  0  0
  -13.4933    8.8062  -12.1788 H   0  0  0  0  0  0  0  0  0  0  0  0
  -10.4446    5.7584  -12.1068 H   0  0  0  0  0  0  0  0  0  0  0  0
  -12.0205    4.3578   -8.3325 H   0  0  0  0  0  0  0  0  0  0  0  0
  -12.0217    8.5147  -18.2342 H   0  0  0  0  0  0  0  0  0  0  0  0
  -13.6720    9.2489  -18.3063 H   0  0  0  0  0  0  0  0  0  0  0  0
  -10.6142    8.6260  -12.0070 H   0  0  0  0  0  0  0  0  0  0  0  0
  1 13  2  0
  1 20  1  0
  2  3  1  0
  2  5  1  0
  3 21  1  0
  3 23  2  0
  4  5  2  0
  4 21  1  0
  6 24  1  0
  7 15  1  0
  7 22  1  0
  7 24  1  0
  8 14  1  0
  8 22  1  0
  9 16  1  0
  9 25  1  0
  9 27  2  0
 10 12  2  0
 10 17  1  0
 10 26  1  0
 11 17  2  0
 11 18  1  0
 11 29  1  0
 12 19  1  0
 13 23  1  0
 14 25  1  0
 15 25  1  0
 16 26  1  0
 18 19  2  0
 19 28  1  0
 20 21  2  0
 20 24  1  0
  2 30  1  0
  4 31  1  0
  5 32  1  0
  6 33  1  0
  6 34  1  0
  6 35  1  0
  7 36  1  1
  8 37  1  0
  8 38  1  0
 12 39  1  0
 13 40  1  0
 14 41  1  0
 14 42  1  0
 15 43  1  0
 15 44  1  0
 16 45  1  0
 16 46  1  0
 17 47  1  0
 18 48  1  0
 22 49  1  0
 22 50  1  0
 26 51  1  0
M  END
>  <filename_input>  (1) 
8FLV_ZB9_docked.sdf

>  <pdb_id>  (1) 
8FLV_ZB9

>  <pose_rank>  (1) 
0

>  <num_atoms_heavy>  (1) 
29

>  <num_torsions>  (1) 
5

>  <pose>  (1) 
[-13.550306746998563, 7.426983381443255, -17.17661448208733, 0.49653230850510516, -1.961370751608536, 5.87263284374792, 0.00824263808751909, 0.009315036951668281, 1.4414574623224585, 3.7439931348675217, 2.015314847401276]

>  <energy>  (1) 
-1777.6794916142437

>  <inter_energy>  (1) 
-1775.4717608461885

>  <intra_energy>  (1) 
16.86726721118799

>  <rmsd>  (1) 
0.785164

>  <sdf_rank>  (1) 
0

$$$$

     RDKit          3D

 51 54  0  0  0  0  0  0  0  0999 V2000
  -15.2982    5.4137  -19.6166 N   0  0  0  0  0  0  0  0  0  0  0  0
  -18.1507    5.0020  -16.7665 N   0  0  0  0  0  0  0  0  0  0  0  0
  -17.2867    5.0735  -17.8235 C   0  0  0  0  0  0  0  0  0  0  0  0
  -16.3013    6.0251  -16.0096 C   0  0  0  0  0  0  0  0  0  0  0  0
  -17.5459    5.5843  -15.6748 C   0  0  0  0  0  0  0  0  0  0  0  0
  -12.8094    6.3615  -19.1268 C   0  0  0  0  0  0  0  0  0  0  0  0
  -13.6196    7.3542  -17.0022 C   0  0  1  0  0  0  0  0  0  0  0  0
  -14.1385    9.5084  -15.8082 C   0  0  0  0  0  0  0  0  0  0  0  0
  -11.2933    8.0846  -14.6335 C   0  0  0  0  0  0  0  0  0  0  0  0
  -10.8806    7.5638  -11.4859 C   0  0  0  0  0  0  0  0  0  0  0  0
  -12.4008    7.0578   -9.7207 C   0  0  0  0  0  0  0  0  0  0  0  0
  -10.4077    6.2608  -11.4419 C   0  0  0  0  0  0  0  0  0  0  0  0
  -16.4632    4.8082  -19.8783 C   0  0  0  0  0  0  0  0  0  0  0  0
  -12.6503    9.7966  -15.7784 C   0  0  0  0  0  0  0  0  0  0  0  0
  -12.1293    7.7039  -16.9138 C   0  0  0  0  0  0  0  0  0  0  0  0
  -11.1250    9.0432  -13.4679 C   0  0  0  0  0  0  0  0  0  0  0  0
  -11.8944    7.9696  -10.6265 C   0  0  0  0  0  0  0  0  0  0  0  0
  -11.9510    5.7559   -9.6431 C   0  0  0  0  0  0  0  0  0  0  0  0
  -10.9467    5.3893  -10.5140 C   0  0  0  0  0  0  0  0  0  0  0  0
  -15.0819    5.8901  -18.3669 C   0  0  0  0  0  0  0  0  0  0  0  0
  -16.1031    5.7167  -17.3925 C   0  0  0  0  0  0  0  0  0  0  0  0
  -14.4760    8.6178  -17.0027 C   0  0  0  0  0  0  0  0  0  0  0  0
  -17.4946    4.6087  -19.0660 N   0  0  0  0  0  0  0  0  0  0  0  0
  -13.8847    6.4861  -18.1564 N   0  0  0  0  0  0  0  0  0  0  0  0
  -11.9282    8.5244  -15.7230 N   0  0  0  0  0  0  0  0  0  0  0  0
  -10.3627    8.4331  -12.3986 N   0  0  0  0  0  0  0  0  0  0  0  0
  -10.9020    6.9201  -14.5395 O   0  0  0  0  0  0  0  0  0  0  0  0
  -10.3475    3.7640  -10.4487 Cl  0  0  0  0  0  0  0  0  0  0  0  0
  -13.6534    7.5565   -8.6264 Cl  0  0  0  0  0  0  0  0  0  0  0  0
  -19.0920    4.5844  -16.7837 H   0  0  0  0  0  0  0  0  0  0  0  0
  -15.5835    6.5244  -15.3422 H   0  0  0  0  0  0  0  0  0  0  0  0
  -18.0014    5.6796  -14.6781 H   0  0  0  0  0  0  0  0  0  0  0  0
  -11.8506    6.2504  -18.5993 H   0  0  0  0  0  0  0  0  0  0  0  0
  -12.9855    5.4778  -19.7576 H   0  0  0  0  0  0  0  0  0  0  0  0
  -12.7786    7.2621  -19.7576 H   0  0  0  0  0  0  0  0  0  0  0  0
  -13.9028    6.7828  -16.1059 H   0  0  0  0  0  0  0  0  0  0  0  0
  -14.4288    8.9963  -14.8789 H   0  0  0  0  0  0  0  0  0  0  0  0
  -14.6877   10.4571  -15.8994 H   0  0  0  0  0  0  0  0  0  0  0  0
   -9.6189    5.9272  -12.1322 H   0  0  0  0  0  0  0  0  0  0  0  0
  -16.5817    4.4249  -20.9025 H   0  0  0  0  0  0  0  0  0  0  0  0
  -12.3615   10.3471  -16.6859 H   0  0  0  0  0  0  0  0  0  0  0  0
  -12.4038   10.4069  -14.8971 H   0  0  0  0  0  0  0  0  0  0  0  0
  -11.5335    6.7823  -16.8371 H   0  0  0  0  0  0  0  0  0  0  0  0
  -11.8112    8.2513  -17.8133 H   0  0  0  0  0  0  0  0  0  0  0  0
  -10.5982    9.9438  -13.8163 H   0  0  0  0  0  0  0  0  0  0  0  0
  -12.1217    9.3038  -13.0825 H   0  0  0  0  0  0  0  0  0  0  0  0
  -12.2861    8.9967  -10.6667 H   0  0  0  0  0  0  0  0  0  0  0  0
  -12.3740    5.0431   -8.9198 H   0  0  0  0  0  0  0  0  0  0  0  0
  -14.2916    9.1770  -17.9318 H   0  0  0  0  0  0  0  0  0  0  0  0
  -15.5339    8.3243  -16.9332 H   0  0  0  0  0  0  0  0  0  0  0  0
   -9.3636    8.6718  -12.3228 H   0  0  0  0  0  0  0  0  0  0  0  0
  1 13  2  0
  1 20  1  0
  2  3  1  0
  2  5  1  0
  3 21  1  0
  3 23  2  0
  4  5  2  0
  4 21  1  0
  6 24  1  0
  7 15  1  0
  7 22  1  0
  7 24  1  0
  8 14  1  0
  8 22  1  0
  9 16  1  0
  9 25  1  0
  9 27  2  0
 10 12  2  0
 10 17  1  0
 10 26  1  0
 11 17  2  0
 11 18  1  0
 11 29  1  0
 12 19  1  0
 13 23  1  0
 14 25  1  0
 15 25  1  0
 16 26  1  0
 18 19  2  0
 19 28  1  0
 20 21  2  0
 20 24  1  0
  2 30  1  0
  4 31  1  0
  5 32  1  0
  6 33  1  0
  6 34  1  0
  6 35  1  0
  7 36  1  1
  8 37  1  0
  8 38  1  0
 12 39  1  0
 13 40  1  0
 14 41  1  0
 14 42  1  0
 15 43  1  0
 15 44  1  0
 16 45  1  0
 16 46  1  0
 17 47  1  0
 18 48  1  0
 22 49  1  0
 22 50  1  0
 26 51  1  0
M  END
>  <filename_input>  (2) 
8FLV_ZB9_docked.sdf

>  <pdb_id>  (2) 
8FLV_ZB9

>  <pose_rank>  (2) 
1

>  <num_atoms_heavy>  (2) 
29

>  <num_torsions>  (2) 
5

>  <pose>  (2) 
[-13.619580839023746, 7.354221290144321, -17.002151182459517, 0.2361088929879071, 0.6928345186367243, 0.8277499914462796, -5.135127451145527, 6.368698804890346, 25.201639340204604, -2.7146838818286456, -7.257575832186503]

>  <energy>  (2) 
-1557.5850099827906

>  <inter_energy>  (2) 
-1598.1460097148727

>  <intra_energy>  (2) 
37.05979524047802

>  <rmsd>  (2) 
1.44522

>  <sdf_rank>  (2) 
0

$$$$

     RDKit          3D

 51 54  0  0  0  0  0  0  0  0999 V2000
  -15.2454    5.3479  -19.6183 N   0  0  0  0  0  0  0  0  0  0  0  0
  -18.0344    5.0435  -16.6930 N   0  0  0  0  0  0  0  0  0  0  0  0
  -17.1939    5.0752  -17.7705 C   0  0  0  0  0  0  0  0  0  0  0  0
  -16.1702    6.0952  -16.0160 C   0  0  0  0  0  0  0  0  0  0  0  0
  -17.4067    5.6670  -15.6376 C   0  0  0  0  0  0  0  0  0  0  0  0
  -12.7324    6.2779  -19.1960 C   0  0  0  0  0  0  0  0  0  0  0  0
  -13.5264    7.4214  -17.1423 C   0  0  1  0  0  0  0  0  0  0  0  0
  -12.8831    9.7639  -16.4834 C   0  0  0  0  0  0  0  0  0  0  0  0
  -12.5737    7.6071  -13.8844 C   0  0  0  0  0  0  0  0  0  0  0  0
  -10.7197   10.5904  -12.7217 C   0  0  0  0  0  0  0  0  0  0  0  0
   -9.4524   12.5872  -13.0219 C   0  0  0  0  0  0  0  0  0  0  0  0
  -11.4461   11.2116  -11.7168 C   0  0  0  0  0  0  0  0  0  0  0  0
  -16.4150    4.7325  -19.8313 C   0  0  0  0  0  0  0  0  0  0  0  0
  -11.7858    9.1707  -15.6216 C   0  0  0  0  0  0  0  0  0  0  0  0
  -12.4104    6.8953  -16.2319 C   0  0  0  0  0  0  0  0  0  0  0  0
  -12.3017    8.6776  -12.8424 C   0  0  0  0  0  0  0  0  0  0  0  0
   -9.7186   11.2831  -13.3919 C   0  0  0  0  0  0  0  0  0  0  0  0
  -10.1490   13.2355  -12.0231 C   0  0  0  0  0  0  0  0  0  0  0  0
  -11.1369   12.5170  -11.3832 C   0  0  0  0  0  0  0  0  0  0  0  0
  -15.0024    5.8714  -18.3926 C   0  0  0  0  0  0  0  0  0  0  0  0
  -16.0019    5.7346  -17.3902 C   0  0  0  0  0  0  0  0  0  0  0  0
  -13.2015    8.8253  -17.6459 C   0  0  0  0  0  0  0  0  0  0  0  0
  -17.4283    4.5636  -18.9897 N   0  0  0  0  0  0  0  0  0  0  0  0
  -13.8016    6.4754  -18.2310 N   0  0  0  0  0  0  0  0  0  0  0  0
  -12.2216    7.8557  -15.1485 N   0  0  0  0  0  0  0  0  0  0  0  0
  -11.0161    9.3055  -13.0652 N   0  0  0  0  0  0  0  0  0  0  0  0
  -13.1561    6.5684  -13.5682 O   0  0  0  0  0  0  0  0  0  0  0  0
  -12.0350   13.2906  -10.1184 Cl  0  0  0  0  0  0  0  0  0  0  0  0
   -8.1903   13.4584  -13.8363 Cl  0  0  0  0  0  0  0  0  0  0  0  0
  -18.9755    4.6252  -16.6737 H   0  0  0  0  0  0  0  0  0  0  0  0
  -15.4386    6.6197  -15.3838 H   0  0  0  0  0  0  0  0  0  0  0  0
  -17.8404    5.7998  -14.6355 H   0  0  0  0  0  0  0  0  0  0  0  0
  -11.7857    6.1030  -18.6637 H   0  0  0  0  0  0  0  0  0  0  0  0
  -12.9643    5.4074  -19.8272 H   0  0  0  0  0  0  0  0  0  0  0  0
  -12.6380    7.1738  -19.8272 H   0  0  0  0  0  0  0  0  0  0  0  0
  -14.4527    7.5047  -16.5549 H   0  0  0  0  0  0  0  0  0  0  0  0
  -13.7872    9.9078  -15.8736 H   0  0  0  0  0  0  0  0  0  0  0  0
  -12.5442   10.7310  -16.8833 H   0  0  0  0  0  0  0  0  0  0  0  0
  -12.2528   10.6757  -11.1952 H   0  0  0  0  0  0  0  0  0  0  0  0
  -16.5555    4.3106  -20.8374 H   0  0  0  0  0  0  0  0  0  0  0  0
  -10.8655    9.0646  -16.2147 H   0  0  0  0  0  0  0  0  0  0  0  0
  -11.5839    9.8300  -14.7645 H   0  0  0  0  0  0  0  0  0  0  0  0
  -12.6964    5.9171  -15.8179 H   0  0  0  0  0  0  0  0  0  0  0  0
  -11.4775    6.7739  -16.8019 H   0  0  0  0  0  0  0  0  0  0  0  0
  -13.0900    9.4426  -12.8987 H   0  0  0  0  0  0  0  0  0  0  0  0
  -12.2927    8.2048  -11.8492 H   0  0  0  0  0  0  0  0  0  0  0  0
   -9.1494   10.8025  -14.2012 H   0  0  0  0  0  0  0  0  0  0  0  0
   -9.9267   14.2776  -11.7497 H   0  0  0  0  0  0  0  0  0  0  0  0
  -12.3307    8.7745  -18.3161 H   0  0  0  0  0  0  0  0  0  0  0  0
  -14.0783    9.2169  -18.1825 H   0  0  0  0  0  0  0  0  0  0  0  0
  -10.2774    8.7443  -13.5125 H   0  0  0  0  0  0  0  0  0  0  0  0
  1 13  2  0
  1 20  1  0
  2  3  1  0
  2  5  1  0
  3 21  1  0
  3 23  2  0
  4  5  2  0
  4 21  1  0
  6 24  1  0
  7 15  1  0
  7 22  1  0
  7 24  1  0
  8 14  1  0
  8 22  1  0
  9 16  1  0
  9 25  1  0
  9 27  2  0
 10 12  2  0
 10 17  1  0
 10 26  1  0
 11 17  2  0
 11 18  1  0
 11 29  1  0
 12 19  1  0
 13 23  1  0
 14 25  1  0
 15 25  1  0
 16 26  1  0
 18 19  2  0
 19 28  1  0
 20 21  2  0
 20 24  1  0
  2 30  1  0
  4 31  1  0
  5 32  1  0
  6 33  1  0
  6 34  1  0
  6 35  1  0
  7 36  1  1
  8 37  1  0
  8 38  1  0
 12 39  1  0
 13 40  1  0
 14 41  1  0
 14 42  1  0
 15 43  1  0
 15 44  1  0
 16 45  1  0
 16 46  1  0
 17 47  1  0
 18 48  1  0
 22 49  1  0
 22 50  1  0
 26 51  1  0
M  END
>  <filename_input>  (3) 
8FLV_ZB9_docked.sdf

>  <pdb_id>  (3) 
8FLV_ZB9

>  <pose_rank>  (3) 
2

>  <num_atoms_heavy>  (3) 
29

>  <num_torsions>  (3) 
5

>  <pose>  (3) 
[-13.526364847172928, 7.421422540061918, -17.142286960752987, 0.017248001934200997, 0.13363818930706586, 0.10347939053323185, 0.22254790915055825, -6.234487266430922, 2.461939292758967, 1.3178154603959296, -2.59491608838819]

>  <energy>  (3) 
-1454.9375458658749

>  <inter_energy>  (3) 
-1514.2002845960667

>  <intra_energy>  (3) 
48.81043276657916

>  <rmsd>  (3) 
3.79134

>  <sdf_rank>  (3) 
0

$$$$

     RDKit          3D

 51 54  0  0  0  0  0  0  0  0999 V2000
  -15.2527    5.5329  -19.5830 N   0  0  0  0  0  0  0  0  0  0  0  0
  -18.0561    5.0925  -16.6889 N   0  0  0  0  0  0  0  0  0  0  0  0
  -17.2077    5.1686  -17.7580 C   0  0  0  0  0  0  0  0  0  0  0  0
  -16.2313    6.1896  -15.9773 C   0  0  0  0  0  0  0  0  0  0  0  0
  -17.4572    5.7170  -15.6175 C   0  0  0  0  0  0  0  0  0  0  0  0
  -12.7673    6.5185  -19.1127 C   0  0  0  0  0  0  0  0  0  0  0  0
  -13.6260    7.6293  -17.0671 C   0  0  1  0  0  0  0  0  0  0  0  0
  -12.6779    9.8477  -16.3495 C   0  0  0  0  0  0  0  0  0  0  0  0
  -13.3373    7.8525  -13.6874 C   0  0  0  0  0  0  0  0  0  0  0  0
  -10.8416    8.8033  -11.5577 C   0  0  0  0  0  0  0  0  0  0  0  0
   -8.5844    8.6069  -12.2989 C   0  0  0  0  0  0  0  0  0  0  0  0
  -10.4535    9.7873  -10.6608 C   0  0  0  0  0  0  0  0  0  0  0  0
  -16.4008    4.8854  -19.8171 C   0  0  0  0  0  0  0  0  0  0  0  0
  -11.9186    9.1181  -15.2587 C   0  0  0  0  0  0  0  0  0  0  0  0
  -12.8453    6.9652  -15.9267 C   0  0  0  0  0  0  0  0  0  0  0  0
  -13.0755    8.9207  -12.6404 C   0  0  0  0  0  0  0  0  0  0  0  0
   -9.9043    8.2108  -12.3951 C   0  0  0  0  0  0  0  0  0  0  0  0
   -8.1600    9.5772  -11.4147 C   0  0  0  0  0  0  0  0  0  0  0  0
   -9.1192   10.1444  -10.6025 C   0  0  0  0  0  0  0  0  0  0  0  0
  -15.0366    6.0426  -18.3465 C   0  0  0  0  0  0  0  0  0  0  0  0
  -16.0401    5.8579  -17.3558 C   0  0  0  0  0  0  0  0  0  0  0  0
  -12.9335    8.9094  -17.5276 C   0  0  0  0  0  0  0  0  0  0  0  0
  -17.4156    4.6709  -18.9878 N   0  0  0  0  0  0  0  0  0  0  0  0
  -13.8566    6.6805  -18.1638 N   0  0  0  0  0  0  0  0  0  0  0  0
  -12.6936    7.9440  -14.8540 N   0  0  0  0  0  0  0  0  0  0  0  0
  -12.1540    8.4441  -11.6302 N   0  0  0  0  0  0  0  0  0  0  0  0
  -14.1661    6.9662  -13.4745 O   0  0  0  0  0  0  0  0  0  0  0  0
   -8.6302   11.3649   -9.4728 Cl  0  0  0  0  0  0  0  0  0  0  0  0
   -7.3985    7.8605  -13.3245 Cl  0  0  0  0  0  0  0  0  0  0  0  0
  -18.9839    4.6451  -16.6853 H   0  0  0  0  0  0  0  0  0  0  0  0
  -15.5218    6.7256  -15.3297 H   0  0  0  0  0  0  0  0  0  0  0  0
  -17.9035    5.8192  -14.6173 H   0  0  0  0  0  0  0  0  0  0  0  0
  -11.8229    6.3780  -18.5664 H   0  0  0  0  0  0  0  0  0  0  0  0
  -12.9594    5.6390  -19.7449 H   0  0  0  0  0  0  0  0  0  0  0  0
  -12.6952    7.4158  -19.7449 H   0  0  0  0  0  0  0  0  0  0  0  0
  -14.6169    7.9254  -16.6923 H   0  0  0  0  0  0  0  0  0  0  0  0
  -13.6401   10.2005  -15.9497 H   0  0  0  0  0  0  0  0  0  0  0  0
  -12.0798   10.7042  -16.6940 H   0  0  0  0  0  0  0  0  0  0  0  0
  -11.1931   10.2744  -10.0083 H   0  0  0  0  0  0  0  0  0  0  0  0
  -16.5194    4.4766  -20.8314 H   0  0  0  0  0  0  0  0  0  0  0  0
  -10.9368    8.8005  -15.6398 H   0  0  0  0  0  0  0  0  0  0  0  0
  -11.7682    9.7841  -14.3963 H   0  0  0  0  0  0  0  0  0  0  0  0
  -13.3978    6.0888  -15.5570 H   0  0  0  0  0  0  0  0  0  0  0  0
  -11.8592    6.6318  -16.2821 H   0  0  0  0  0  0  0  0  0  0  0  0
  -12.6451    9.8065  -13.1304 H   0  0  0  0  0  0  0  0  0  0  0  0
  -14.0286    9.1740  -12.1531 H   0  0  0  0  0  0  0  0  0  0  0  0
  -10.2073    7.4413  -13.1205 H   0  0  0  0  0  0  0  0  0  0  0  0
   -7.1051    9.8842  -11.3601 H   0  0  0  0  0  0  0  0  0  0  0  0
  -11.9725    8.6500  -17.9959 H   0  0  0  0  0  0  0  0  0  0  0  0
  -13.5875    9.4219  -18.2484 H   0  0  0  0  0  0  0  0  0  0  0  0
  -12.5142    7.7909  -10.9200 H   0  0  0  0  0  0  0  0  0  0  0  0
  1 13  2  0
  1 20  1  0
  2  3  1  0
  2  5  1  0
  3 21  1  0
  3 23  2  0
  4  5  2  0
  4 21  1  0
  6 24  1  0
  7 15  1  0
  7 22  1  0
  7 24  1  0
  8 14  1  0
  8 22  1  0
  9 16  1  0
  9 25  1  0
  9 27  2  0
 10 12  2  0
 10 17  1  0
 10 26  1  0
 11 17  2  0
 11 18  1  0
 11 29  1  0
 12 19  1  0
 13 23  1  0
 14 25  1  0
 15 25  1  0
 16 26  1  0
 18 19  2  0
 19 28  1  0
 20 21  2  0
 20 24  1  0
  2 30  1  0
  4 31  1  0
  5 32  1  0
  6 33  1  0
  6 34  1  0
  6 35  1  0
  7 36  1  1
  8 37  1  0
  8 38  1  0
 12 39  1  0
 13 40  1  0
 14 41  1  0
 14 42  1  0
 15 43  1  0
 15 44  1  0
 16 45  1  0
 16 46  1  0
 17 47  1  0
 18 48  1  0
 22 49  1  0
 22 50  1  0
 26 51  1  0
M  END
>  <filename_input>  (4) 
8FLV_ZB9_docked.sdf

>  <pdb_id>  (4) 
8FLV_ZB9

>  <pose_rank>  (4) 
3

>  <num_atoms_heavy>  (4) 
29

>  <num_torsions>  (4) 
5

>  <pose>  (4) 
[-13.625997016668524, 7.629309850693554, -17.067125159109246, -1.4606378999540823, -3.933542432277077, -4.842734189704006, 6.20305405893937, -6.248980621324201, 1.400454572381892, 0.4967529107837125, -1.2722394614940045]

>  <energy>  (4) 
-1473.2210703616383

>  <inter_energy>  (4) 
-1505.47686153923

>  <intra_energy>  (4) 
19.0806954452858

>  <rmsd>  (4) 
2.7524

>  <sdf_rank>  (4) 
0

$$$$

     RDKit          3D

 51 54  0  0  0  0  0  0  0  0999 V2000
  -15.3001    5.5473  -19.5643 N   0  0  0  0  0  0  0  0  0  0  0  0
  -18.0234    5.0715  -16.6000 N   0  0  0  0  0  0  0  0  0  0  0  0
  -17.2011    5.1536  -17.6889 C   0  0  0  0  0  0  0  0  0  0  0  0
  -16.2274    6.2536  -15.9543 C   0  0  0  0  0  0  0  0  0  0  0  0
  -17.4264    5.7439  -15.5569 C   0  0  0  0  0  0  0  0  0  0  0  0
  -13.0595    7.0354  -19.3471 C   0  0  0  0  0  0  0  0  0  0  0  0
  -13.5001    7.3802  -16.9300 C   0  0  1  0  0  0  0  0  0  0  0  0
  -12.9876    7.0297  -14.4908 C   0  0  0  0  0  0  0  0  0  0  0  0
  -13.3734   10.3183  -15.2249 C   0  0  0  0  0  0  0  0  0  0  0  0
  -11.7570    9.1247  -12.4703 C   0  0  0  0  0  0  0  0  0  0  0  0
  -12.8108    8.0022  -10.6503 C   0  0  0  0  0  0  0  0  0  0  0  0
  -10.7101    8.2168  -12.4142 C   0  0  0  0  0  0  0  0  0  0  0  0
  -16.4273    4.8514  -19.7580 C   0  0  0  0  0  0  0  0  0  0  0  0
  -13.9457    8.1613  -14.1744 C   0  0  0  0  0  0  0  0  0  0  0  0
  -14.4357    8.5285  -16.5335 C   0  0  0  0  0  0  0  0  0  0  0  0
  -12.9163   10.8220  -13.8674 C   0  0  0  0  0  0  0  0  0  0  0  0
  -12.8260    9.0153  -11.5893 C   0  0  0  0  0  0  0  0  0  0  0  0
  -11.7840    7.0851  -10.5599 C   0  0  0  0  0  0  0  0  0  0  0  0
  -10.7426    7.2238  -11.4530 C   0  0  0  0  0  0  0  0  0  0  0  0
  -15.0779    6.0945  -18.3450 C   0  0  0  0  0  0  0  0  0  0  0  0
  -16.0525    5.8961  -17.3286 C   0  0  0  0  0  0  0  0  0  0  0  0
  -13.3864    6.3568  -15.8030 C   0  0  0  0  0  0  0  0  0  0  0  0
  -17.4155    4.6189  -18.9019 N   0  0  0  0  0  0  0  0  0  0  0  0
  -13.9196    6.7809  -18.2031 N   0  0  0  0  0  0  0  0  0  0  0  0
  -13.9359    9.1087  -15.2903 N   0  0  0  0  0  0  0  0  0  0  0  0
  -11.7415   10.1061  -13.4155 N   0  0  0  0  0  0  0  0  0  0  0  0
  -13.1715   10.9925  -16.2361 O   0  0  0  0  0  0  0  0  0  0  0  0
   -9.4284    6.0962  -11.3728 Cl  0  0  0  0  0  0  0  0  0  0  0  0
  -14.1298    7.8657   -9.5293 Cl  0  0  0  0  0  0  0  0  0  0  0  0
  -18.9330    4.5896  -16.5657 H   0  0  0  0  0  0  0  0  0  0  0  0
  -15.5255    6.8315  -15.3351 H   0  0  0  0  0  0  0  0  0  0  0  0
  -17.8553    5.8533  -14.5498 H   0  0  0  0  0  0  0  0  0  0  0  0
  -12.0599    7.3313  -18.9958 H   0  0  0  0  0  0  0  0  0  0  0  0
  -12.9789    6.1226  -19.9557 H   0  0  0  0  0  0  0  0  0  0  0  0
  -13.4887    7.8451  -19.9557 H   0  0  0  0  0  0  0  0  0  0  0  0
  -12.4901    7.7855  -17.0896 H   0  0  0  0  0  0  0  0  0  0  0  0
  -11.9677    7.4313  -14.5829 H   0  0  0  0  0  0  0  0  0  0  0  0
  -13.0253    6.2880  -13.6793 H   0  0  0  0  0  0  0  0  0  0  0  0
   -9.8699    8.2856  -13.1209 H   0  0  0  0  0  0  0  0  0  0  0  0
  -16.5514    4.4140  -20.7596 H   0  0  0  0  0  0  0  0  0  0  0  0
  -14.9608    7.7600  -14.0381 H   0  0  0  0  0  0  0  0  0  0  0  0
  -13.6352    8.6683  -13.2489 H   0  0  0  0  0  0  0  0  0  0  0  0
  -14.4450    9.2925  -17.3247 H   0  0  0  0  0  0  0  0  0  0  0  0
  -15.4614    8.1557  -16.3960 H   0  0  0  0  0  0  0  0  0  0  0  0
  -12.6775   11.8931  -13.9431 H   0  0  0  0  0  0  0  0  0  0  0  0
  -13.7267   10.6575  -13.1420 H   0  0  0  0  0  0  0  0  0  0  0  0
  -13.6678    9.7217  -11.6385 H   0  0  0  0  0  0  0  0  0  0  0  0
  -11.7957    6.2805   -9.8100 H   0  0  0  0  0  0  0  0  0  0  0  0
  -14.3578    5.8580  -15.6707 H   0  0  0  0  0  0  0  0  0  0  0  0
  -12.6106    5.6247  -16.0714 H   0  0  0  0  0  0  0  0  0  0  0  0
  -10.8348   10.3550  -13.8361 H   0  0  0  0  0  0  0  0  0  0  0  0
  1 13  2  0
  1 20  1  0
  2  3  1  0
  2  5  1  0
  3 21  1  0
  3 23  2  0
  4  5  2  0
  4 21  1  0
  6 24  1  0
  7 15  1  0
  7 22  1  0
  7 24  1  0
  8 14  1  0
  8 22  1  0
  9 16  1  0
  9 25  1  0
  9 27  2  0
 10 12  2  0
 10 17  1  0
 10 26  1  0
 11 17  2  0
 11 18  1  0
 11 29  1  0
 12 19  1  0
 13 23  1  0
 14 25  1  0
 15 25  1  0
 16 26  1  0
 18 19  2  0
 19 28  1  0
 20 21  2  0
 20 24  1  0
  2 30  1  0
  4 31  1  0
  5 32  1  0
  6 33  1  0
  6 34  1  0
  6 35  1  0
  7 36  1  6
  8 37  1  0
  8 38  1  0
 12 39  1  0
 13 40  1  0
 14 41  1  0
 14 42  1  0
 15 43  1  0
 15 44  1  0
 16 45  1  0
 16 46  1  0
 17 47  1  0
 18 48  1  0
 22 49  1  0
 22 50  1  0
 26 51  1  0
M  END
>  <filename_input>  (5) 
8FLV_ZB9_docked.sdf

>  <pdb_id>  (5) 
8FLV_ZB9

>  <pose_rank>  (5) 
4

>  <num_atoms_heavy>  (5) 
29

>  <num_torsions>  (5) 
5

>  <pose>  (5) 
[-13.500142753782061, 7.380156950769993, -16.929970786549273, 0.697806553786923, 1.8164438323301164, 2.883835355475921, -3.0072628335394667, -5.85779599559511, -1.8717430653038152, 15.731769544436306, -0.23368634907123528]

>  <energy>  (5) 
-1355.0172569646993

>  <inter_energy>  (5) 
-1557.3517810501662

>  <intra_energy>  (5) 
175.1138288458906

>  <rmsd>  (5) 
2.1444

>  <sdf_rank>  (5) 
0

$$$$

     RDKit          3D

 51 54  0  0  0  0  0  0  0  0999 V2000
  -15.4639    5.2891  -20.0602 N   0  0  0  0  0  0  0  0  0  0  0  0
  -17.6953    5.0049  -16.6884 N   0  0  0  0  0  0  0  0  0  0  0  0
  -17.0577    5.0303  -17.8973 C   0  0  0  0  0  0  0  0  0  0  0  0
  -15.7349    6.0460  -16.3529 C   0  0  0  0  0  0  0  0  0  0  0  0
  -16.8878    5.6257  -15.7615 C   0  0  0  0  0  0  0  0  0  0  0  0
  -12.8579    6.1032  -20.0229 C   0  0  0  0  0  0  0  0  0  0  0  0
  -13.3735    7.4501  -18.0040 C   0  0  1  0  0  0  0  0  0  0  0  0
  -12.7773    9.8683  -17.6407 C   0  0  0  0  0  0  0  0  0  0  0  0
  -11.8118    7.9383  -15.0243 C   0  0  0  0  0  0  0  0  0  0  0  0
  -11.7027    9.0533  -11.6618 C   0  0  0  0  0  0  0  0  0  0  0  0
  -12.7479    8.5857   -9.5709 C   0  0  0  0  0  0  0  0  0  0  0  0
  -11.8878   10.4101  -11.4422 C   0  0  0  0  0  0  0  0  0  0  0  0
  -16.6564    4.6806  -20.0624 C   0  0  0  0  0  0  0  0  0  0  0  0
  -11.4930    9.4047  -16.9818 C   0  0  0  0  0  0  0  0  0  0  0  0
  -12.0659    7.0580  -17.3056 C   0  0  0  0  0  0  0  0  0  0  0  0
  -11.4145    9.0992  -14.1298 C   0  0  0  0  0  0  0  0  0  0  0  0
  -12.1253    8.1273  -10.7157 C   0  0  0  0  0  0  0  0  0  0  0  0
  -12.9554    9.9265   -9.3212 C   0  0  0  0  0  0  0  0  0  0  0  0
  -12.5196   10.8152  -10.2813 C   0  0  0  0  0  0  0  0  0  0  0  0
  -15.0056    5.8124  -18.8976 C   0  0  0  0  0  0  0  0  0  0  0  0
  -15.8136    5.6829  -17.7345 C   0  0  0  0  0  0  0  0  0  0  0  0
  -13.2528    8.8268  -18.6522 C   0  0  0  0  0  0  0  0  0  0  0  0
  -17.5064    4.5188  -19.0550 N   0  0  0  0  0  0  0  0  0  0  0  0
  -13.7917    6.4093  -18.9516 N   0  0  0  0  0  0  0  0  0  0  0  0
  -11.7342    8.1080  -16.3468 N   0  0  0  0  0  0  0  0  0  0  0  0
  -11.0770    8.6388  -12.7991 N   0  0  0  0  0  0  0  0  0  0  0  0
  -12.2466    6.8965  -14.5309 O   0  0  0  0  0  0  0  0  0  0  0  0
  -12.7636   12.5100  -10.0114 Cl  0  0  0  0  0  0  0  0  0  0  0  0
  -13.3000    7.4391   -8.3894 Cl  0  0  0  0  0  0  0  0  0  0  0  0
  -18.6207    4.5924  -16.5026 H   0  0  0  0  0  0  0  0  0  0  0  0
  -14.9002    6.5667  -15.8607 H   0  0  0  0  0  0  0  0  0  0  0  0
  -17.1373    5.7623  -14.6989 H   0  0  0  0  0  0  0  0  0  0  0  0
  -11.8961    5.7880  -19.5920 H   0  0  0  0  0  0  0  0  0  0  0  0
  -13.2652    5.2915  -20.6436 H   0  0  0  0  0  0  0  0  0  0  0  0
  -12.7057    6.9985  -20.6436 H   0  0  0  0  0  0  0  0  0  0  0  0
  -14.1691    7.5270  -17.2483 H   0  0  0  0  0  0  0  0  0  0  0  0
  -13.5511   10.0085  -16.8715 H   0  0  0  0  0  0  0  0  0  0  0  0
  -12.5921   10.8190  -18.1622 H   0  0  0  0  0  0  0  0  0  0  0  0
  -11.5385   11.1497  -12.1778 H   0  0  0  0  0  0  0  0  0  0  0  0
  -16.9745    4.2584  -21.0271 H   0  0  0  0  0  0  0  0  0  0  0  0
  -10.7028    9.3043  -17.7404 H   0  0  0  0  0  0  0  0  0  0  0  0
  -11.1722   10.1382  -16.2273 H   0  0  0  0  0  0  0  0  0  0  0  0
  -12.1958    6.1003  -16.7804 H   0  0  0  0  0  0  0  0  0  0  0  0
  -11.2577    6.9449  -18.0433 H   0  0  0  0  0  0  0  0  0  0  0  0
  -10.5420    9.6073  -14.5664 H   0  0  0  0  0  0  0  0  0  0  0  0
  -12.2666    9.7909  -14.0551 H   0  0  0  0  0  0  0  0  0  0  0  0
  -11.9671    7.0505  -10.8752 H   0  0  0  0  0  0  0  0  0  0  0  0
  -13.4458   10.2709   -8.3987 H   0  0  0  0  0  0  0  0  0  0  0  0
  -12.5301    8.7728  -19.4796 H   0  0  0  0  0  0  0  0  0  0  0  0
  -14.2434    9.1268  -19.0247 H   0  0  0  0  0  0  0  0  0  0  0  0
  -10.3141    7.9531  -12.7062 H   0  0  0  0  0  0  0  0  0  0  0  0
  1 13  2  0
  1 20  1  0
  2  3  1  0
  2  5  1  0
  3 21  1  0
  3 23  2  0
  4  5  2  0
  4 21  1  0
  6 24  1  0
  7 15  1  0
  7 22  1  0
  7 24  1  0
  8 14  1  0
  8 22  1  0
  9 16  1  0
  9 25  1  0
  9 27  2  0
 10 12  2  0
 10 17  1  0
 10 26  1  0
 11 17  2  0
 11 18  1  0
 11 29  1  0
 12 19  1  0
 13 23  1  0
 14 25  1  0
 15 25  1  0
 16 26  1  0
 18 19  2  0
 19 28  1  0
 20 21  2  0
 20 24  1  0
  2 30  1  0
  4 31  1  0
  5 32  1  0
  6 33  1  0
  6 34  1  0
  6 35  1  0
  7 36  1  1
  8 37  1  0
  8 38  1  0
 12 39  1  0
 13 40  1  0
 14 41  1  0
 14 42  1  0
 15 43  1  0
 15 44  1  0
 16 45  1  0
 16 46  1  0
 17 47  1  0
 18 48  1  0
 22 49  1  0
 22 50  1  0
 26 51  1  0
M  END
>  <filename_input>  (6) 
8FLV_ZB9_docked.sdf

>  <pdb_id>  (6) 
8FLV_ZB9

>  <pose_rank>  (6) 
5

>  <num_atoms_heavy>  (6) 
29

>  <num_torsions>  (6) 
5

>  <pose>  (6) 
[-13.373456691874614, 7.450058797604055, -18.004002344372346, 0.7474872255886357, -5.298899339183002, -2.497233051309489, 0.32751075281092845, 6.226158371875347, 0.3899386061787633, -3.4363233940538804, -3.8625090195598832]

>  <energy>  (6) 
-1301.9721763140503

>  <inter_energy>  (6) 
-1287.5147988510448

>  <intra_energy>  (6) 
10.611098891673947

>  <rmsd>  (6) 
2.42885

>  <sdf_rank>  (6) 
0

$$$$

     RDKit          3D

 51 54  0  0  0  0  0  0  0  0999 V2000
  -15.3447    5.4593  -19.6604 N   0  0  0  0  0  0  0  0  0  0  0  0
  -18.0254    5.0658  -16.6458 N   0  0  0  0  0  0  0  0  0  0  0  0
  -17.2218    5.1240  -17.7501 C   0  0  0  0  0  0  0  0  0  0  0  0
  -16.1768    6.1811  -16.0304 C   0  0  0  0  0  0  0  0  0  0  0  0
  -17.3852    5.7119  -15.6118 C   0  0  0  0  0  0  0  0  0  0  0  0
  -12.7726    6.3019  -19.1817 C   0  0  0  0  0  0  0  0  0  0  0  0
  -13.6901    7.7560  -17.3930 C   0  0  1  0  0  0  0  0  0  0  0  0
  -12.8171   10.0919  -17.0507 C   0  0  0  0  0  0  0  0  0  0  0  0
  -13.3802    8.5246  -14.0962 C   0  0  0  0  0  0  0  0  0  0  0  0
  -10.7911    9.0636  -12.8586 C   0  0  0  0  0  0  0  0  0  0  0  0
  -10.1272    6.9719  -11.9275 C   0  0  0  0  0  0  0  0  0  0  0  0
   -9.5216    9.2192  -13.3948 C   0  0  0  0  0  0  0  0  0  0  0  0
  -16.4992    4.8043  -19.8350 C   0  0  0  0  0  0  0  0  0  0  0  0
  -12.0223    9.5720  -15.8689 C   0  0  0  0  0  0  0  0  0  0  0  0
  -12.8758    7.3094  -16.1729 C   0  0  0  0  0  0  0  0  0  0  0  0
  -13.1484    9.7543  -13.2361 C   0  0  0  0  0  0  0  0  0  0  0  0
  -11.1064    7.9260  -12.1255 C   0  0  0  0  0  0  0  0  0  0  0  0
   -8.8520    7.0952  -12.4394 C   0  0  0  0  0  0  0  0  0  0  0  0
   -8.5777    8.2360  -13.1639 C   0  0  0  0  0  0  0  0  0  0  0  0
  -15.0798    5.9927  -18.4436 C   0  0  0  0  0  0  0  0  0  0  0  0
  -16.0411    5.8240  -17.4092 C   0  0  0  0  0  0  0  0  0  0  0  0
  -13.0486    8.9695  -18.0609 C   0  0  0  0  0  0  0  0  0  0  0  0
  -17.4782    4.6027  -18.9608 N   0  0  0  0  0  0  0  0  0  0  0  0
  -13.8956    6.6373  -18.3215 N   0  0  0  0  0  0  0  0  0  0  0  0
  -12.7505    8.4513  -15.2716 N   0  0  0  0  0  0  0  0  0  0  0  0
  -11.7337   10.0220  -13.0817 N   0  0  0  0  0  0  0  0  0  0  0  0
  -14.1744    7.6554  -13.7332 O   0  0  0  0  0  0  0  0  0  0  0  0
   -6.9865    8.4351  -13.8222 Cl  0  0  0  0  0  0  0  0  0  0  0  0
  -10.5006    5.5549  -10.9959 Cl  0  0  0  0  0  0  0  0  0  0  0  0
  -18.9506    4.6159  -16.5957 H   0  0  0  0  0  0  0  0  0  0  0  0
  -15.4432    6.7311  -15.4227 H   0  0  0  0  0  0  0  0  0  0  0  0
  -17.7904    5.8317  -14.5962 H   0  0  0  0  0  0  0  0  0  0  0  0
  -11.9014    6.0417  -18.5626 H   0  0  0  0  0  0  0  0  0  0  0  0
  -13.0404    5.4445  -19.8167 H   0  0  0  0  0  0  0  0  0  0  0  0
  -12.5263    7.1657  -19.8167 H   0  0  0  0  0  0  0  0  0  0  0  0
  -14.6878    8.0736  -17.0557 H   0  0  0  0  0  0  0  0  0  0  0  0
  -13.7880   10.4703  -16.6982 H   0  0  0  0  0  0  0  0  0  0  0  0
  -12.2536   10.9026  -17.5355 H   0  0  0  0  0  0  0  0  0  0  0  0
   -9.2706   10.1080  -13.9923 H   0  0  0  0  0  0  0  0  0  0  0  0
  -16.6579    4.3762  -20.8357 H   0  0  0  0  0  0  0  0  0  0  0  0
  -11.0330    9.2318  -16.2088 H   0  0  0  0  0  0  0  0  0  0  0  0
  -11.8887   10.3716  -15.1255 H   0  0  0  0  0  0  0  0  0  0  0  0
  -13.3928    6.4846  -15.6607 H   0  0  0  0  0  0  0  0  0  0  0  0
  -11.8813    6.9579  -16.4850 H   0  0  0  0  0  0  0  0  0  0  0  0
  -13.6285   10.6219  -13.7123 H   0  0  0  0  0  0  0  0  0  0  0  0
  -13.5805    9.5719  -12.2411 H   0  0  0  0  0  0  0  0  0  0  0  0
  -12.1159    7.7878  -11.7111 H   0  0  0  0  0  0  0  0  0  0  0  0
   -8.0893    6.3193  -12.2771 H   0  0  0  0  0  0  0  0  0  0  0  0
  -12.0830    8.6722  -18.4959 H   0  0  0  0  0  0  0  0  0  0  0  0
  -13.7272    9.3378  -18.8445 H   0  0  0  0  0  0  0  0  0  0  0  0
  -11.4194   11.0008  -13.1448 H   0  0  0  0  0  0  0  0  0  0  0  0
  1 13  2  0
  1 20  1  0
  2  3  1  0
  2  5  1  0
  3 21  1  0
  3 23  2  0
  4  5  2  0
  4 21  1  0
  6 24  1  0
  7 15  1  0
  7 22  1  0
  7 24  1  0
  8 14  1  0
  8 22  1  0
  9 16  1  0
  9 25  1  0
  9 27  2  0
 10 12  2  0
 10 17  1  0
 10 26  1  0
 11 17  2  0
 11 18  1  0
 11 29  1  0
 12 19  1  0
 13 23  1  0
 14 25  1  0
 15 25  1  0
 16 26  1  0
 18 19  2  0
 19 28  1  0
 20 21  2  0
 20 24  1  0
  2 30  1  0
  4 31  1  0
  5 32  1  0
  6 33  1  0
  6 34  1  0
  6 35  1  0
  7 36  1  1
  8 37  1  0
  8 38  1  0
 12 39  1  0
 13 40  1  0
 14 41  1  0
 14 42  1  0
 15 43  1  0
 15 44  1  0
 16 45  1  0
 16 46  1  0
 17 47  1  0
 18 48  1  0
 22 49  1  0
 22 50  1  0
 26 51  1  0
M  END
>  <filename_input>  (7) 
8FLV_ZB9_docked.sdf

>  <pdb_id>  (7) 
8FLV_ZB9

>  <pose_rank>  (7) 
6

>  <num_atoms_heavy>  (7) 
29

>  <num_torsions>  (7) 
5

>  <pose>  (7) 
[-13.690083766488739, 7.7560333340002146, -17.392976640300418, -0.18710837019809348, -0.0726808717254446, -0.05202571389373929, 6.27827828144363, 6.143077218613265, -3.999052872199307, -2.0495290018678247, 5.823338964814259]

>  <energy>  (7) 
-1451.0007362183453

>  <inter_energy>  (7) 
-1535.5940604623104

>  <intra_energy>  (7) 
71.32889526276809

>  <rmsd>  (7) 
2.57449

>  <sdf_rank>  (7) 
0

$$$$

     RDKit          3D

 51 54  0  0  0  0  0  0  0  0999 V2000
  -15.1691    5.5483  -19.5483 N   0  0  0  0  0  0  0  0  0  0  0  0
  -18.0008    4.9713  -16.7063 N   0  0  0  0  0  0  0  0  0  0  0  0
  -17.1412    5.0965  -17.7617 C   0  0  0  0  0  0  0  0  0  0  0  0
  -16.1931    6.0532  -15.9308 C   0  0  0  0  0  0  0  0  0  0  0  0
  -17.4190    5.5572  -15.6041 C   0  0  0  0  0  0  0  0  0  0  0  0
  -12.7050    6.5517  -19.0219 C   0  0  0  0  0  0  0  0  0  0  0  0
  -13.5805    7.5379  -16.9203 C   0  0  1  0  0  0  0  0  0  0  0  0
  -12.9168    9.8261  -16.1084 C   0  0  0  0  0  0  0  0  0  0  0  0
  -12.8852    7.5516  -13.5929 C   0  0  0  0  0  0  0  0  0  0  0  0
  -12.2790    7.6003  -10.2284 C   0  0  0  0  0  0  0  0  0  0  0  0
  -12.7496    8.0018   -7.9261 C   0  0  0  0  0  0  0  0  0  0  0  0
  -12.7819    6.3144  -10.0991 C   0  0  0  0  0  0  0  0  0  0  0  0
  -16.3092    4.9018  -19.8211 C   0  0  0  0  0  0  0  0  0  0  0  0
  -11.9114    9.1582  -15.1910 C   0  0  0  0  0  0  0  0  0  0  0  0
  -12.5582    6.9344  -15.9500 C   0  0  0  0  0  0  0  0  0  0  0  0
  -12.6628    8.5667  -12.4857 C   0  0  0  0  0  0  0  0  0  0  0  0
  -12.2696    8.4609   -9.1374 C   0  0  0  0  0  0  0  0  0  0  0  0
  -13.2512    6.7276   -7.7579 C   0  0  0  0  0  0  0  0  0  0  0  0
  -13.2470    5.9039   -8.8637 C   0  0  0  0  0  0  0  0  0  0  0  0
  -14.9710    6.0100  -18.2901 C   0  0  0  0  0  0  0  0  0  0  0  0
  -15.9838    5.7782  -17.3191 C   0  0  0  0  0  0  0  0  0  0  0  0
  -13.1715    8.9495  -17.3333 C   0  0  0  0  0  0  0  0  0  0  0  0
  -17.3313    4.6466  -19.0126 N   0  0  0  0  0  0  0  0  0  0  0  0
  -13.7983    6.6492  -18.0687 N   0  0  0  0  0  0  0  0  0  0  0  0
  -12.4256    7.8408  -14.8130 N   0  0  0  0  0  0  0  0  0  0  0  0
  -11.8215    8.0211  -11.4410 N   0  0  0  0  0  0  0  0  0  0  0  0
  -13.5240    6.5219  -13.3703 O   0  0  0  0  0  0  0  0  0  0  0  0
  -13.8639    4.2925   -8.6972 Cl  0  0  0  0  0  0  0  0  0  0  0  0
  -12.7250    9.0591   -6.5490 Cl  0  0  0  0  0  0  0  0  0  0  0  0
  -18.9249    4.5170  -16.7311 H   0  0  0  0  0  0  0  0  0  0  0  0
  -15.4952    6.5684  -15.2543 H   0  0  0  0  0  0  0  0  0  0  0  0
  -17.8772    5.6160  -14.6058 H   0  0  0  0  0  0  0  0  0  0  0  0
  -11.7519    6.4667  -18.4793 H   0  0  0  0  0  0  0  0  0  0  0  0
  -12.8477    5.6627  -19.6539 H   0  0  0  0  0  0  0  0  0  0  0  0
  -12.6881    7.4519  -19.6539 H   0  0  0  0  0  0  0  0  0  0  0  0
  -14.5475    7.6292  -16.4041 H   0  0  0  0  0  0  0  0  0  0  0  0
  -13.8616    9.9761  -15.5654 H   0  0  0  0  0  0  0  0  0  0  0  0
  -12.5162   10.7965  -16.4367 H   0  0  0  0  0  0  0  0  0  0  0  0
  -12.8103    5.6341  -10.9631 H   0  0  0  0  0  0  0  0  0  0  0  0
  -16.4132    4.5329  -20.8521 H   0  0  0  0  0  0  0  0  0  0  0  0
  -10.9507    9.0446  -15.7144 H   0  0  0  0  0  0  0  0  0  0  0  0
  -11.7574    9.7731  -14.2919 H   0  0  0  0  0  0  0  0  0  0  0  0
  -12.9075    5.9503  -15.6041 H   0  0  0  0  0  0  0  0  0  0  0  0
  -11.5872    6.8041  -16.4501 H   0  0  0  0  0  0  0  0  0  0  0  0
  -12.1781    9.4591  -12.9082 H   0  0  0  0  0  0  0  0  0  0  0  0
  -13.6382    8.8274  -12.0490 H   0  0  0  0  0  0  0  0  0  0  0  0
  -11.8874    9.4877   -9.2363 H   0  0  0  0  0  0  0  0  0  0  0  0
  -13.6366    6.3847   -6.7863 H   0  0  0  0  0  0  0  0  0  0  0  0
  -12.2521    8.8961  -17.9349 H   0  0  0  0  0  0  0  0  0  0  0  0
  -13.9898    9.3943  -17.9187 H   0  0  0  0  0  0  0  0  0  0  0  0
  -10.8112    7.9461  -11.6267 H   0  0  0  0  0  0  0  0  0  0  0  0
  1 13  2  0
  1 20  1  0
  2  3  1  0
  2  5  1  0
  3 21  1  0
  3 23  2  0
  4  5  2  0
  4 21  1  0
  6 24  1  0
  7 15  1  0
  7 22  1  0
  7 24  1  0
  8 14  1  0
  8 22  1  0
  9 16  1  0
  9 25  1  0
  9 27  2  0
 10 12  2  0
 10 17  1  0
 10 26  1  0
 11 17  2  0
 11 18  1  0
 11 29  1  0
 12 19  1  0
 13 23  1  0
 14 25  1  0
 15 25  1  0
 16 26  1  0
 18 19  2  0
 19 28  1  0
 20 21  2  0
 20 24  1  0
  2 30  1  0
  4 31  1  0
  5 32  1  0
  6 33  1  0
  6 34  1  0
  6 35  1  0
  7 36  1  1
  8 37  1  0
  8 38  1  0
 12 39  1  0
 13 40  1  0
 14 41  1  0
 14 42  1  0
 15 43  1  0
 15 44  1  0
 16 45  1  0
 16 46  1  0
 17 47  1  0
 18 48  1  0
 22 49  1  0
 22 50  1  0
 26 51  1  0
M  END
>  <filename_input>  (8) 
8FLV_ZB9_docked.sdf

>  <pdb_id>  (8) 
8FLV_ZB9

>  <pose_rank>  (8) 
7

>  <num_atoms_heavy>  (8) 
29

>  <num_torsions>  (8) 
5

>  <pose>  (8) 
[-13.580505629970812, 7.537946523517797, -16.920326915534467, -3.3920618191175844, -2.992219519058106, -4.20496580705829, 0.12645609091660656, 0.0523739544694803, 1.1229137674734655, 3.1447284416949373, -1.536905769846677]

>  <energy>  (8) 
-1596.8317318438333

>  <inter_energy>  (8) 
-1605.7203355571423

>  <intra_energy>  (8) 
14.308726174157995

>  <rmsd>  (8) 
1.29315

>  <sdf_rank>  (8) 
0

$$$$

     RDKit          3D

 51 54  0  0  0  0  0  0  0  0999 V2000
  -15.2318    5.4371  -19.2279 N   0  0  0  0  0  0  0  0  0  0  0  0
  -18.4367    5.0321  -16.7796 N   0  0  0  0  0  0  0  0  0  0  0  0
  -17.4471    5.1218  -17.7185 C   0  0  0  0  0  0  0  0  0  0  0  0
  -16.6094    5.7782  -15.7099 C   0  0  0  0  0  0  0  0  0  0  0  0
  -17.9201    5.4355  -15.5684 C   0  0  0  0  0  0  0  0  0  0  0  0
  -13.2938    5.6731  -16.3062 C   0  0  0  0  0  0  0  0  0  0  0  0
  -13.1234    7.1723  -18.2757 C   0  0  1  0  0  0  0  0  0  0  0  0
  -11.7482    7.6233  -20.3350 C   0  0  0  0  0  0  0  0  0  0  0  0
  -11.3053   10.0301  -17.9869 C   0  0  0  0  0  0  0  0  0  0  0  0
   -9.1287   12.5524  -17.5569 C   0  0  0  0  0  0  0  0  0  0  0  0
   -7.1719   11.9197  -16.3513 C   0  0  0  0  0  0  0  0  0  0  0  0
   -8.7695   13.8855  -17.4253 C   0  0  0  0  0  0  0  0  0  0  0  0
  -16.4057    4.9838  -19.6850 C   0  0  0  0  0  0  0  0  0  0  0  0
  -10.6475    8.1413  -19.4302 C   0  0  0  0  0  0  0  0  0  0  0  0
  -11.9749    7.7317  -17.4277 C   0  0  0  0  0  0  0  0  0  0  0  0
  -10.4956   10.9533  -18.8801 C   0  0  0  0  0  0  0  0  0  0  0  0
   -8.3207   11.5544  -17.0259 C   0  0  0  0  0  0  0  0  0  0  0  0
   -6.7859   13.2350  -16.1946 C   0  0  0  0  0  0  0  0  0  0  0  0
   -7.6113   14.1968  -16.7378 C   0  0  0  0  0  0  0  0  0  0  0  0
  -15.1280    5.7593  -17.9161 C   0  0  0  0  0  0  0  0  0  0  0  0
  -16.2722    5.5932  -17.0879 C   0  0  0  0  0  0  0  0  0  0  0  0
  -12.6001    6.5975  -19.5894 C   0  0  0  0  0  0  0  0  0  0  0  0
  -17.5424    4.8095  -19.0210 N   0  0  0  0  0  0  0  0  0  0  0  0
  -13.9170    6.2052  -17.5070 N   0  0  0  0  0  0  0  0  0  0  0  0
  -11.2592    8.7180  -18.2319 N   0  0  0  0  0  0  0  0  0  0  0  0
  -10.2650   12.2296  -18.2362 N   0  0  0  0  0  0  0  0  0  0  0  0
  -12.0251   10.4975  -17.1030 O   0  0  0  0  0  0  0  0  0  0  0  0
   -7.1678   15.8632  -16.5610 Cl  0  0  0  0  0  0  0  0  0  0  0  0
   -6.1631   10.6844  -15.6645 Cl  0  0  0  0  0  0  0  0  0  0  0  0
  -19.4025    4.7170  -16.9490 H   0  0  0  0  0  0  0  0  0  0  0  0
  -15.9367    6.1310  -14.9143 H   0  0  0  0  0  0  0  0  0  0  0  0
  -18.4837    5.4750  -14.6245 H   0  0  0  0  0  0  0  0  0  0  0  0
  -13.7881    6.0951  -15.4187 H   0  0  0  0  0  0  0  0  0  0  0  0
  -13.3942    4.5777  -16.2956 H   0  0  0  0  0  0  0  0  0  0  0  0
  -12.2277    5.9437  -16.2956 H   0  0  0  0  0  0  0  0  0  0  0  0
  -13.8014    7.9967  -18.5412 H   0  0  0  0  0  0  0  0  0  0  0  0
  -12.3841    8.4630  -20.6521 H   0  0  0  0  0  0  0  0  0  0  0  0
  -11.2954    7.1441  -21.2155 H   0  0  0  0  0  0  0  0  0  0  0  0
   -9.3943   14.6798  -17.8597 H   0  0  0  0  0  0  0  0  0  0  0  0
  -16.4321    4.7207  -20.7527 H   0  0  0  0  0  0  0  0  0  0  0  0
   -9.9824    7.3130  -19.1445 H   0  0  0  0  0  0  0  0  0  0  0  0
  -10.0583    8.9068  -19.9564 H   0  0  0  0  0  0  0  0  0  0  0  0
  -12.3776    8.2094  -16.5224 H   0  0  0  0  0  0  0  0  0  0  0  0
  -11.2957    6.9220  -17.1224 H   0  0  0  0  0  0  0  0  0  0  0  0
   -9.5266   10.4815  -19.1004 H   0  0  0  0  0  0  0  0  0  0  0  0
  -11.0604   11.1265  -19.8080 H   0  0  0  0  0  0  0  0  0  0  0  0
   -8.5905   10.4941  -17.1406 H   0  0  0  0  0  0  0  0  0  0  0  0
   -5.8624   13.5039  -15.6610 H   0  0  0  0  0  0  0  0  0  0  0  0
  -11.9877    5.7092  -19.3748 H   0  0  0  0  0  0  0  0  0  0  0  0
  -13.4594    6.3295  -20.2217 H   0  0  0  0  0  0  0  0  0  0  0  0
  -11.0085   12.9399  -18.2955 H   0  0  0  0  0  0  0  0  0  0  0  0
  1 13  2  0
  1 20  1  0
  2  3  1  0
  2  5  1  0
  3 21  1  0
  3 23  2  0
  4  5  2  0
  4 21  1  0
  6 24  1  0
  7 15  1  0
  7 22  1  0
  7 24  1  0
  8 14  1  0
  8 22  1  0
  9 16  1  0
  9 25  1  0
  9 27  2  0
 10 12  2  0
 10 17  1  0
 10 26  1  0
 11 17  2  0
 11 18  1  0
 11 29  1  0
 12 19  1  0
 13 23  1  0
 14 25  1  0
 15 25  1  0
 16 26  1  0
 18 19  2  0
 19 28  1  0
 20 21  2  0
 20 24  1  0
  2 30  1  0
  4 31  1  0
  5 32  1  0
  6 33  1  0
  6 34  1  0
  6 35  1  0
  7 36  1  6
  8 37  1  0
  8 38  1  0
 12 39  1  0
 13 40  1  0
 14 41  1  0
 14 42  1  0
 15 43  1  0
 15 44  1  0
 16 45  1  0
 16 46  1  0
 17 47  1  0
 18 48  1  0
 22 49  1  0
 22 50  1  0
 26 51  1  0
M  END
>  <filename_input>  (9) 
8FLV_ZB9_docked.sdf

>  <pdb_id>  (9) 
8FLV_ZB9

>  <pose_rank>  (9) 
8

>  <num_atoms_heavy>  (9) 
29

>  <num_torsions>  (9) 
5

>  <pose>  (9) 
[-13.123369655352287, 7.172283551816018, -18.27567982094227, -1.4578448038451883, 0.1994186888704551, -0.4384167429214218, 1.0712586262594543, -2.0073693349157273, 6.655491204582213, 0.37446165032428713, -0.29836529305264015]

>  <energy>  (9) 
-1040.926343659124

>  <inter_energy>  (9) 
-1074.1076564220782

>  <intra_energy>  (9) 
27.75315847926446

>  <rmsd>  (9) 
6.53003

>  <sdf_rank>  (9) 
0

$$$$

     RDKit          3D

 51 54  0  0  0  0  0  0  0  0999 V2000
  -15.5040    5.4986  -19.7582 N   0  0  0  0  0  0  0  0  0  0  0  0
  -17.9941    5.0695  -16.5889 N   0  0  0  0  0  0  0  0  0  0  0  0
  -17.2587    5.1380  -17.7392 C   0  0  0  0  0  0  0  0  0  0  0  0
  -16.1299    6.2147  -16.0859 C   0  0  0  0  0  0  0  0  0  0  0  0
  -17.3037    5.7277  -15.5955 C   0  0  0  0  0  0  0  0  0  0  0  0
  -13.1856    6.8722  -19.7037 C   0  0  0  0  0  0  0  0  0  0  0  0
  -13.5037    7.3578  -17.2915 C   0  0  1  0  0  0  0  0  0  0  0  0
  -11.9157    7.2843  -15.3400 C   0  0  0  0  0  0  0  0  0  0  0  0
  -14.3632    9.5849  -14.8713 C   0  0  0  0  0  0  0  0  0  0  0  0
  -11.3640   10.7254  -13.1991 C   0  0  0  0  0  0  0  0  0  0  0  0
  -10.6454   12.9081  -12.5645 C   0  0  0  0  0  0  0  0  0  0  0  0
  -10.0449   10.2974  -13.1921 C   0  0  0  0  0  0  0  0  0  0  0  0
  -16.6564    4.8254  -19.8630 C   0  0  0  0  0  0  0  0  0  0  0  0
  -13.1028    7.5123  -14.4249 C   0  0  0  0  0  0  0  0  0  0  0  0
  -14.6506    7.6087  -16.3051 C   0  0  0  0  0  0  0  0  0  0  0  0
  -13.7540   10.1877  -13.6178 C   0  0  0  0  0  0  0  0  0  0  0  0
  -11.6748   12.0400  -12.8728 C   0  0  0  0  0  0  0  0  0  0  0  0
   -9.3214   12.5203  -12.5537 C   0  0  0  0  0  0  0  0  0  0  0  0
   -9.0525   11.2077  -12.8797 C   0  0  0  0  0  0  0  0  0  0  0  0
  -15.1756    6.0386  -18.5598 C   0  0  0  0  0  0  0  0  0  0  0  0
  -16.0709    5.8570  -17.4699 C   0  0  0  0  0  0  0  0  0  0  0  0
  -12.3686    6.5876  -16.6219 C   0  0  0  0  0  0  0  0  0  0  0  0
  -17.5785    4.6103  -18.9318 N   0  0  0  0  0  0  0  0  0  0  0  0
  -13.9964    6.7017  -18.5091 N   0  0  0  0  0  0  0  0  0  0  0  0
  -14.1028    8.3037  -15.1437 N   0  0  0  0  0  0  0  0  0  0  0  0
  -12.3537    9.8385  -13.5002 N   0  0  0  0  0  0  0  0  0  0  0  0
  -15.0281   10.2858  -15.6357 O   0  0  0  0  0  0  0  0  0  0  0  0
   -7.4021   10.6777  -12.8833 Cl  0  0  0  0  0  0  0  0  0  0  0  0
  -11.0169   14.5590  -12.1750 Cl  0  0  0  0  0  0  0  0  0  0  0  0
  -18.9076    4.6055  -16.4833 H   0  0  0  0  0  0  0  0  0  0  0  0
  -15.3701    6.7773  -15.5235 H   0  0  0  0  0  0  0  0  0  0  0  0
  -17.6496    5.8432  -14.5577 H   0  0  0  0  0  0  0  0  0  0  0  0
  -12.1471    7.0906  -19.4138 H   0  0  0  0  0  0  0  0  0  0  0  0
  -13.2132    5.9486  -20.3005 H   0  0  0  0  0  0  0  0  0  0  0  0
  -13.5828    7.7065  -20.3005 H   0  0  0  0  0  0  0  0  0  0  0  0
  -13.0857    8.3267  -17.6021 H   0  0  0  0  0  0  0  0  0  0  0  0
  -11.4603    8.2530  -15.5936 H   0  0  0  0  0  0  0  0  0  0  0  0
  -11.1803    6.6489  -14.8249 H   0  0  0  0  0  0  0  0  0  0  0  0
   -9.7931    9.2535  -13.4306 H   0  0  0  0  0  0  0  0  0  0  0  0
  -16.8676    4.3928  -20.8520 H   0  0  0  0  0  0  0  0  0  0  0  0
  -13.5365    6.5446  -14.1327 H   0  0  0  0  0  0  0  0  0  0  0  0
  -12.7811    8.0472  -13.5191 H   0  0  0  0  0  0  0  0  0  0  0  0
  -15.4235    8.2297  -16.7814 H   0  0  0  0  0  0  0  0  0  0  0  0
  -15.1074    6.6557  -15.9998 H   0  0  0  0  0  0  0  0  0  0  0  0
  -13.8488   11.2827  -13.6628 H   0  0  0  0  0  0  0  0  0  0  0  0
  -14.2885    9.7895  -12.7427 H   0  0  0  0  0  0  0  0  0  0  0  0
  -12.7200   12.3825  -12.8602 H   0  0  0  0  0  0  0  0  0  0  0  0
   -8.5174   13.2257  -12.2970 H   0  0  0  0  0  0  0  0  0  0  0  0
  -12.7177    5.5738  -16.3762 H   0  0  0  0  0  0  0  0  0  0  0  0
  -11.5169    6.5440  -17.3168 H   0  0  0  0  0  0  0  0  0  0  0  0
  -12.0883    8.8552  -13.6543 H   0  0  0  0  0  0  0  0  0  0  0  0
  1 13  2  0
  1 20  1  0
  2  3  1  0
  2  5  1  0
  3 21  1  0
  3 23  2  0
  4  5  2  0
  4 21  1  0
  6 24  1  0
  7 15  1  0
  7 22  1  0
  7 24  1  0
  8 14  1  0
  8 22  1  0
  9 16  1  0
  9 25  1  0
  9 27  2  0
 10 12  2  0
 10 17  1  0
 10 26  1  0
 11 17  2  0
 11 18  1  0
 11 29  1  0
 12 19  1  0
 13 23  1  0
 14 25  1  0
 15 25  1  0
 16 26  1  0
 18 19  2  0
 19 28  1  0
 20 21  2  0
 20 24  1  0
  2 30  1  0
  4 31  1  0
  5 32  1  0
  6 33  1  0
  6 34  1  0
  6 35  1  0
  7 36  1  6
  8 37  1  0
  8 38  1  0
 12 39  1  0
 13 40  1  0
 14 41  1  0
 14 42  1  0
 15 43  1  0
 15 44  1  0
 16 45  1  0
 16 46  1  0
 17 47  1  0
 18 48  1  0
 22 49  1  0
 22 50  1  0
 26 51  1  0
M  END
>  <filename_input>  (10) 
8FLV_ZB9_docked.sdf

>  <pdb_id>  (10) 
8FLV_ZB9

>  <pose_rank>  (10) 
9

>  <num_atoms_heavy>  (10) 
29

>  <num_torsions>  (10) 
5

>  <pose>  (10) 
[-13.503716098757343, 7.357843766861233, -17.29145721272309, -0.36345771261738696, -1.0069068956541503, -1.682329561300847, 4.102428230947574, 0.3605631676809716, -2.3195387934399845, 1.0108604574142284, 0.2005605970733789]

>  <energy>  (10) 
-1175.243772540578

>  <inter_energy>  (10) 
-1385.0508156636351

>  <intra_energy>  (10) 
217.58181813317728

>  <rmsd>  (10) 
4.00597

>  <sdf_rank>  (10) 
0

$$$$

     RDKit          3D

 51 54  0  0  0  0  0  0  0  0999 V2000
  -15.4807    5.1662  -19.3293 N   0  0  0  0  0  0  0  0  0  0  0  0
  -17.6377    4.7438  -15.9237 N   0  0  0  0  0  0  0  0  0  0  0  0
  -16.9899    4.7681  -17.1272 C   0  0  0  0  0  0  0  0  0  0  0  0
  -16.1793    6.4479  -15.8279 C   0  0  0  0  0  0  0  0  0  0  0  0
  -17.1423    5.7670  -15.1463 C   0  0  0  0  0  0  0  0  0  0  0  0
  -14.6016    8.0887  -19.3972 C   0  0  0  0  0  0  0  0  0  0  0  0
  -13.0974    7.0303  -17.7321 C   0  0  1  0  0  0  0  0  0  0  0  0
  -10.9715    5.8476  -17.0862 C   0  0  0  0  0  0  0  0  0  0  0  0
  -11.5676    8.5230  -15.0888 C   0  0  0  0  0  0  0  0  0  0  0  0
  -10.7852    7.9561  -12.0147 C   0  0  0  0  0  0  0  0  0  0  0  0
  -10.7767    5.7982  -11.0015 C   0  0  0  0  0  0  0  0  0  0  0  0
  -11.6465    8.4084  -11.0263 C   0  0  0  0  0  0  0  0  0  0  0  0
  -16.3862    4.1895  -19.1940 C   0  0  0  0  0  0  0  0  0  0  0  0
  -11.3087    6.1319  -15.6356 C   0  0  0  0  0  0  0  0  0  0  0  0
  -13.3591    7.2998  -16.2455 C   0  0  0  0  0  0  0  0  0  0  0  0
  -10.2255    8.4736  -14.3801 C   0  0  0  0  0  0  0  0  0  0  0  0
  -10.3339    6.6418  -12.0018 C   0  0  0  0  0  0  0  0  0  0  0  0
  -11.6383    6.2104  -10.0060 C   0  0  0  0  0  0  0  0  0  0  0  0
  -12.0618    7.5219  -10.0502 C   0  0  0  0  0  0  0  0  0  0  0  0
  -15.2902    6.0209  -18.2956 C   0  0  0  0  0  0  0  0  0  0  0  0
  -16.0591    5.8329  -17.1141 C   0  0  0  0  0  0  0  0  0  0  0  0
  -12.2515    5.7731  -17.9167 C   0  0  0  0  0  0  0  0  0  0  0  0
  -17.1757    3.9285  -18.1586 N   0  0  0  0  0  0  0  0  0  0  0  0
  -14.3577    6.9841  -18.4841 N   0  0  0  0  0  0  0  0  0  0  0  0
  -12.0684    7.3814  -15.5678 N   0  0  0  0  0  0  0  0  0  0  0  0
  -10.3631    8.8194  -12.9808 N   0  0  0  0  0  0  0  0  0  0  0  0
  -12.1382    9.6013  -15.2607 O   0  0  0  0  0  0  0  0  0  0  0  0
  -13.1488    8.0821   -8.8216 Cl  0  0  0  0  0  0  0  0  0  0  0  0
  -10.2376    4.1477  -10.9844 Cl  0  0  0  0  0  0  0  0  0  0  0  0
  -18.3703    4.0752  -15.6460 H   0  0  0  0  0  0  0  0  0  0  0  0
  -15.6025    7.3088  -15.4589 H   0  0  0  0  0  0  0  0  0  0  0  0
  -17.4756    6.0004  -14.1243 H   0  0  0  0  0  0  0  0  0  0  0  0
  -14.8036    9.0034  -18.8206 H   0  0  0  0  0  0  0  0  0  0  0  0
  -13.7159    8.2429  -20.0310 H   0  0  0  0  0  0  0  0  0  0  0  0
  -15.4700    7.8556  -20.0310 H   0  0  0  0  0  0  0  0  0  0  0  0
  -12.5135    7.8656  -18.1458 H   0  0  0  0  0  0  0  0  0  0  0  0
  -10.3313    6.6529  -17.4756 H   0  0  0  0  0  0  0  0  0  0  0  0
  -10.4429    4.8852  -17.1514 H   0  0  0  0  0  0  0  0  0  0  0  0
  -11.9926    9.4525  -11.0192 H   0  0  0  0  0  0  0  0  0  0  0  0
  -16.4902    3.5131  -20.0552 H   0  0  0  0  0  0  0  0  0  0  0  0
  -11.9130    5.3083  -15.2276 H   0  0  0  0  0  0  0  0  0  0  0  0
  -10.3843    6.2222  -15.0462 H   0  0  0  0  0  0  0  0  0  0  0  0
  -13.9030    8.2487  -16.1282 H   0  0  0  0  0  0  0  0  0  0  0  0
  -13.9679    6.4925  -15.8121 H   0  0  0  0  0  0  0  0  0  0  0  0
   -9.8139    7.4567  -14.4603 H   0  0  0  0  0  0  0  0  0  0  0  0
   -9.5517    9.2015  -14.8558 H   0  0  0  0  0  0  0  0  0  0  0  0
   -9.6377    6.2804  -12.7729 H   0  0  0  0  0  0  0  0  0  0  0  0
  -11.9721    5.5244   -9.2135 H   0  0  0  0  0  0  0  0  0  0  0  0
  -12.8357    4.8966  -17.5994 H   0  0  0  0  0  0  0  0  0  0  0  0
  -11.9761    5.6888  -18.9783 H   0  0  0  0  0  0  0  0  0  0  0  0
  -10.1265    9.7809  -12.6971 H   0  0  0  0  0  0  0  0  0  0  0  0
  1 13  2  0
  1 20  1  0
  2  3  1  0
  2  5  1  0
  3 21  1  0
  3 23  2  0
  4  5  2  0
  4 21  1  0
  6 24  1  0
  7 15  1  0
  7 22  1  0
  7 24  1  0
  8 14  1  0
  8 22  1  0
  9 16  1  0
  9 25  1  0
  9 27  2  0
 10 12  2  0
 10 17  1  0
 10 26  1  0
 11 17  2  0
 11 18  1  0
 11 29  1  0
 12 19  1  0
 13 23  1  0
 14 25  1  0
 15 25  1  0
 16 26  1  0
 18 19  2  0
 19 28  1  0
 20 21  2  0
 20 24  1  0
  2 30  1  0
  4 31  1  0
  5 32  1  0
  6 33  1  0
  6 34  1  0
  6 35  1  0
  7 36  1  6
  8 37  1  0
  8 38  1  0
 12 39  1  0
 13 40  1  0
 14 41  1  0
 14 42  1  0
 15 43  1  0
 15 44  1  0
 16 45  1  0
 16 46  1  0
 17 47  1  0
 18 48  1  0
 22 49  1  0
 22 50  1  0
 26 51  1  0
M  END
>  <filename_input>  (11) 
8FLV_ZB9_docked.sdf

>  <pdb_id>  (11) 
8FLV_ZB9

>  <pose_rank>  (11) 
10

>  <num_atoms_heavy>  (11) 
29

>  <num_torsions>  (11) 
5

>  <pose>  (11) 
[-13.097430567655847, 7.0302680025965705, -17.732081792050323, -0.906106956035236, -0.3122027386392276, -1.8600676315992999, -2.9901993792769295, 1.5464028558954968, 1.1575377745135074, 6.374228234733878, -5.447777462162873]

>  <energy>  (11) 
-1106.1521548609164

>  <inter_energy>  (11) 
-1145.912402451946

>  <intra_energy>  (11) 
32.41237607311397

>  <rmsd>  (11) 
2.12603

>  <sdf_rank>  (11) 
0

$$$$

     RDKit          3D

 51 54  0  0  0  0  0  0  0  0999 V2000
  -15.5217    5.4158  -19.7620 N   0  0  0  0  0  0  0  0  0  0  0  0
  -18.0921    5.0105  -16.6542 N   0  0  0  0  0  0  0  0  0  0  0  0
  -17.3343    5.0852  -17.7895 C   0  0  0  0  0  0  0  0  0  0  0  0
  -16.1467    5.9606  -16.0602 C   0  0  0  0  0  0  0  0  0  0  0  0
  -17.3655    5.5467  -15.6144 C   0  0  0  0  0  0  0  0  0  0  0  0
  -12.8138    5.8751  -19.1734 C   0  0  0  0  0  0  0  0  0  0  0  0
  -13.6771    7.6175  -17.6324 C   0  0  1  0  0  0  0  0  0  0  0  0
  -13.4498   10.1241  -17.6051 C   0  0  0  0  0  0  0  0  0  0  0  0
  -12.1891    8.7259  -14.7840 C   0  0  0  0  0  0  0  0  0  0  0  0
   -9.6400   10.1140  -13.1876 C   0  0  0  0  0  0  0  0  0  0  0  0
   -7.9147   10.7316  -11.6629 C   0  0  0  0  0  0  0  0  0  0  0  0
   -9.5073    8.7919  -12.7905 C   0  0  0  0  0  0  0  0  0  0  0  0
  -16.7248    4.8506  -19.9213 C   0  0  0  0  0  0  0  0  0  0  0  0
  -12.1064    9.9486  -16.9245 C   0  0  0  0  0  0  0  0  0  0  0  0
  -12.3213    7.5208  -16.9227 C   0  0  0  0  0  0  0  0  0  0  0  0
  -11.9659   10.0419  -14.0602 C   0  0  0  0  0  0  0  0  0  0  0  0
   -8.8461   11.0999  -12.6143 C   0  0  0  0  0  0  0  0  0  0  0  0
   -7.7494    9.4264  -11.2477 C   0  0  0  0  0  0  0  0  0  0  0  0
   -8.5573    8.4767  -11.8368 C   0  0  0  0  0  0  0  0  0  0  0  0
  -15.1692    5.8529  -18.5290 C   0  0  0  0  0  0  0  0  0  0  0  0
  -16.0948    5.6830  -17.4628 C   0  0  0  0  0  0  0  0  0  0  0  0
  -13.7690    8.8979  -18.4585 C   0  0  0  0  0  0  0  0  0  0  0  0
  -17.6773    4.6593  -19.0159 N   0  0  0  0  0  0  0  0  0  0  0  0
  -13.9394    6.4090  -18.4240 N   0  0  0  0  0  0  0  0  0  0  0  0
  -12.1458    8.7270  -16.1188 N   0  0  0  0  0  0  0  0  0  0  0  0
  -10.5754   10.4409  -14.1230 N   0  0  0  0  0  0  0  0  0  0  0  0
  -12.4592    7.7065  -14.1471 O   0  0  0  0  0  0  0  0  0  0  0  0
   -8.3809    6.8228  -11.3489 Cl  0  0  0  0  0  0  0  0  0  0  0  0
   -6.9012   11.9498  -10.9529 Cl  0  0  0  0  0  0  0  0  0  0  0  0
  -19.0430    4.6204  -16.5880 H   0  0  0  0  0  0  0  0  0  0  0  0
  -15.3519    6.4217  -15.4556 H   0  0  0  0  0  0  0  0  0  0  0  0
  -17.7179    5.6286  -14.5756 H   0  0  0  0  0  0  0  0  0  0  0  0
  -12.0470    5.5114  -18.4736 H   0  0  0  0  0  0  0  0  0  0  0  0
  -13.1563    5.0435  -19.8067 H   0  0  0  0  0  0  0  0  0  0  0  0
  -12.3865    6.6665  -19.8067 H   0  0  0  0  0  0  0  0  0  0  0  0
  -14.4707    7.6758  -16.8730 H   0  0  0  0  0  0  0  0  0  0  0  0
  -14.2312   10.2493  -16.8411 H   0  0  0  0  0  0  0  0  0  0  0  0
  -13.4129   11.0134  -18.2514 H   0  0  0  0  0  0  0  0  0  0  0  0
  -10.1456    8.0090  -13.2259 H   0  0  0  0  0  0  0  0  0  0  0  0
  -16.9551    4.4978  -20.9374 H   0  0  0  0  0  0  0  0  0  0  0  0
  -11.3146    9.8661  -17.6836 H   0  0  0  0  0  0  0  0  0  0  0  0
  -11.8953   10.8157  -16.2814 H   0  0  0  0  0  0  0  0  0  0  0  0
  -12.3024    6.6333  -16.2732 H   0  0  0  0  0  0  0  0  0  0  0  0
  -11.5097    7.4314  -17.6598 H   0  0  0  0  0  0  0  0  0  0  0  0
  -12.5848   10.8203  -14.5304 H   0  0  0  0  0  0  0  0  0  0  0  0
  -12.2453    9.9122  -13.0042 H   0  0  0  0  0  0  0  0  0  0  0  0
   -8.9570   12.1529  -12.9123 H   0  0  0  0  0  0  0  0  0  0  0  0
   -7.0074    9.1557  -10.4822 H   0  0  0  0  0  0  0  0  0  0  0  0
  -13.0512    8.8417  -19.2902 H   0  0  0  0  0  0  0  0  0  0  0  0
  -14.7956    8.9950  -18.8414 H   0  0  0  0  0  0  0  0  0  0  0  0
  -10.2736   11.0090  -14.9274 H   0  0  0  0  0  0  0  0  0  0  0  0
  1 13  2  0
  1 20  1  0
  2  3  1  0
  2  5  1  0
  3 21  1  0
  3 23  2  0
  4  5  2  0
  4 21  1  0
  6 24  1  0
  7 15  1  0
  7 22  1  0
  7 24  1  0
  8 14  1  0
  8 22  1  0
  9 16  1  0
  9 25  1  0
  9 27  2  0
 10 12  2  0
 10 17  1  0
 10 26  1  0
 11 17  2  0
 11 18  1  0
 11 29  1  0
 12 19  1  0
 13 23  1  0
 14 25  1  0
 15 25  1  0
 16 26  1  0
 18 19  2  0
 19 28  1  0
 20 21  2  0
 20 24  1  0
  2 30  1  0
  4 31  1  0
  5 32  1  0
  6 33  1  0
  6 34  1  0
  6 35  1  0
  7 36  1  1
  8 37  1  0
  8 38  1  0
 12 39  1  0
 13 40  1  0
 14 41  1  0
 14 42  1  0
 15 43  1  0
 15 44  1  0
 16 45  1  0
 16 46  1  0
 17 47  1  0
 18 48  1  0
 22 49  1  0
 22 50  1  0
 26 51  1  0
M  END
>  <filename_input>  (12) 
8FLV_ZB9_docked.sdf

>  <pdb_id>  (12) 
8FLV_ZB9

>  <pose_rank>  (12) 
11

>  <num_atoms_heavy>  (12) 
29

>  <num_torsions>  (12) 
5

>  <pose>  (12) 
[-13.677075933549226, 7.617522532418345, -17.63238569487224, -0.20423993514999458, 0.36183398146030993, 0.28661543365685227, 6.925298193451777, 5.93140381176179, 8.175147203704043, -2.9113802132907187, -2.131334089438122]

>  <energy>  (12) 
-1354.0596856334182

>  <inter_energy>  (12) 
-1381.4031413738012

>  <intra_energy>  (12) 
19.523096011582037

>  <rmsd>  (12) 
3.45443

>  <sdf_rank>  (12) 
0

$$$$

     RDKit          3D

 51 54  0  0  0  0  0  0  0  0999 V2000
  -15.0372    5.8763  -19.5033 N   0  0  0  0  0  0  0  0  0  0  0  0
  -17.6058    4.9642  -16.5034 N   0  0  0  0  0  0  0  0  0  0  0  0
  -16.8098    5.1635  -17.5967 C   0  0  0  0  0  0  0  0  0  0  0  0
  -16.1962    6.6281  -15.9703 C   0  0  0  0  0  0  0  0  0  0  0  0
  -17.2286    5.8584  -15.5263 C   0  0  0  0  0  0  0  0  0  0  0  0
  -14.4162    8.9368  -18.4688 C   0  0  0  0  0  0  0  0  0  0  0  0
  -12.6627    7.2814  -17.8850 C   0  0  1  0  0  0  0  0  0  0  0  0
  -11.0374    5.7722  -16.6950 C   0  0  0  0  0  0  0  0  0  0  0  0
   -9.6542    8.7877  -17.3996 C   0  0  0  0  0  0  0  0  0  0  0  0
   -6.7482    8.0222  -18.9301 C   0  0  0  0  0  0  0  0  0  0  0  0
   -5.1805    6.3695  -19.6328 C   0  0  0  0  0  0  0  0  0  0  0  0
   -7.3031    8.0253  -20.2011 C   0  0  0  0  0  0  0  0  0  0  0  0
  -15.9386    4.8948  -19.6313 C   0  0  0  0  0  0  0  0  0  0  0  0
  -10.5226    6.9894  -15.9520 C   0  0  0  0  0  0  0  0  0  0  0  0
  -12.0747    8.4678  -17.1119 C   0  0  0  0  0  0  0  0  0  0  0  0
   -8.2464    8.3995  -16.9834 C   0  0  0  0  0  0  0  0  0  0  0  0
   -5.6829    7.1806  -18.6338 C   0  0  0  0  0  0  0  0  0  0  0  0
   -5.7019    6.3502  -20.9100 C   0  0  0  0  0  0  0  0  0  0  0  0
   -6.7603    7.1965  -21.1652 C   0  0  0  0  0  0  0  0  0  0  0  0
  -14.9927    6.5674  -18.3388 C   0  0  0  0  0  0  0  0  0  0  0  0
  -15.9037    6.2100  -17.3069 C   0  0  0  0  0  0  0  0  0  0  0  0
  -12.4953    5.9832  -17.0996 C   0  0  0  0  0  0  0  0  0  0  0  0
  -16.8502    4.4871  -18.7560 N   0  0  0  0  0  0  0  0  0  0  0  0
  -14.0576    7.5433  -18.2615 N   0  0  0  0  0  0  0  0  0  0  0  0
  -10.6785    8.1636  -16.8123 N   0  0  0  0  0  0  0  0  0  0  0  0
   -7.2756    8.8300  -17.9678 N   0  0  0  0  0  0  0  0  0  0  0  0
   -9.8295    9.6142  -18.2963 O   0  0  0  0  0  0  0  0  0  0  0  0
   -7.4442    7.2089  -22.7579 Cl  0  0  0  0  0  0  0  0  0  0  0  0
   -3.8361    5.3277  -19.2829 Cl  0  0  0  0  0  0  0  0  0  0  0  0
  -18.3583    4.2654  -16.4241 H   0  0  0  0  0  0  0  0  0  0  0  0
  -15.6836    7.4218  -15.4070 H   0  0  0  0  0  0  0  0  0  0  0  0
  -17.6932    5.9393  -14.5325 H   0  0  0  0  0  0  0  0  0  0  0  0
  -14.5434    9.4315  -17.4945 H   0  0  0  0  0  0  0  0  0  0  0  0
  -13.6184    9.4405  -19.0343 H   0  0  0  0  0  0  0  0  0  0  0  0
  -15.3580    8.9929  -19.0343 H   0  0  0  0  0  0  0  0  0  0  0  0
  -12.1010    7.1563  -18.8224 H   0  0  0  0  0  0  0  0  0  0  0  0
  -10.4288    5.6122  -17.5972 H   0  0  0  0  0  0  0  0  0  0  0  0
  -10.9694    4.8931  -16.0374 H   0  0  0  0  0  0  0  0  0  0  0  0
   -8.1589    8.6748  -20.4375 H   0  0  0  0  0  0  0  0  0  0  0  0
  -15.9219    4.3541  -20.5891 H   0  0  0  0  0  0  0  0  0  0  0  0
  -11.0996    7.1295  -15.0260 H   0  0  0  0  0  0  0  0  0  0  0  0
   -9.4622    6.8511  -15.6942 H   0  0  0  0  0  0  0  0  0  0  0  0
  -12.1349    9.3794  -17.7246 H   0  0  0  0  0  0  0  0  0  0  0  0
  -12.6376    8.6346  -16.1817 H   0  0  0  0  0  0  0  0  0  0  0  0
   -8.0136    8.8726  -16.0181 H   0  0  0  0  0  0  0  0  0  0  0  0
   -8.1963    7.3039  -16.8985 H   0  0  0  0  0  0  0  0  0  0  0  0
   -5.2482    7.1606  -17.6235 H   0  0  0  0  0  0  0  0  0  0  0  0
   -5.2923    5.6902  -21.6888 H   0  0  0  0  0  0  0  0  0  0  0  0
  -13.1172    6.0282  -16.1934 H   0  0  0  0  0  0  0  0  0  0  0  0
  -12.8065    5.1440  -17.7392 H   0  0  0  0  0  0  0  0  0  0  0  0
   -6.9633    9.8111  -17.9386 H   0  0  0  0  0  0  0  0  0  0  0  0
  1 13  2  0
  1 20  1  0
  2  3  1  0
  2  5  1  0
  3 21  1  0
  3 23  2  0
  4  5  2  0
  4 21  1  0
  6 24  1  0
  7 15  1  0
  7 22  1  0
  7 24  1  0
  8 14  1  0
  8 22  1  0
  9 16  1  0
  9 25  1  0
  9 27  2  0
 10 12  2  0
 10 17  1  0
 10 26  1  0
 11 17  2  0
 11 18  1  0
 11 29  1  0
 12 19  1  0
 13 23  1  0
 14 25  1  0
 15 25  1  0
 16 26  1  0
 18 19  2  0
 19 28  1  0
 20 21  2  0
 20 24  1  0
  2 30  1  0
  4 31  1  0
  5 32  1  0
  6 33  1  0
  6 34  1  0
  6 35  1  0
  7 36  1  6
  8 37  1  0
  8 38  1  0
 12 39  1  0
 13 40  1  0
 14 41  1  0
 14 42  1  0
 15 43  1  0
 15 44  1  0
 16 45  1  0
 16 46  1  0
 17 47  1  0
 18 48  1  0
 22 49  1  0
 22 50  1  0
 26 51  1  0
M  END
>  <filename_input>  (13) 
8FLV_ZB9_docked.sdf

>  <pdb_id>  (13) 
8FLV_ZB9

>  <pose_rank>  (13) 
12

>  <num_atoms_heavy>  (13) 
29

>  <num_torsions>  (13) 
5

>  <pose>  (13) 
[-12.662732084124052, 7.281379379442352, -17.885000019154244, 2.2683524412107006, 0.7917221641360126, 2.331352752535458, 1.8779522497855596, 2.0481608738679946, -0.2939982651438569, -3.0372270836838564, -1.3288222058112107]

>  <energy>  (13) 
-989.38121256164

>  <inter_energy>  (13) 
-978.4930984939614

>  <intra_energy>  (13) 
5.877892102891953

>  <rmsd>  (13) 
7.30659

>  <sdf_rank>  (13) 
0

$$$$

     RDKit          3D

 51 54  0  0  0  0  0  0  0  0999 V2000
  -15.4600    5.3819  -19.7430 N   0  0  0  0  0  0  0  0  0  0  0  0
  -17.9703    4.9856  -16.5855 N   0  0  0  0  0  0  0  0  0  0  0  0
  -17.2245    5.0365  -17.7299 C   0  0  0  0  0  0  0  0  0  0  0  0
  -16.1522    6.2126  -16.1070 C   0  0  0  0  0  0  0  0  0  0  0  0
  -17.3143    5.7039  -15.6106 C   0  0  0  0  0  0  0  0  0  0  0  0
  -13.0039    6.5217  -19.5630 C   0  0  0  0  0  0  0  0  0  0  0  0
  -13.7310    7.7012  -17.5049 C   0  0  1  0  0  0  0  0  0  0  0  0
  -12.5233    9.8275  -16.9086 C   0  0  0  0  0  0  0  0  0  0  0  0
  -13.6970    8.2431  -14.1491 C   0  0  0  0  0  0  0  0  0  0  0  0
  -12.2469    8.0651  -11.3915 C   0  0  0  0  0  0  0  0  0  0  0  0
  -13.2033    7.0909   -9.4372 C   0  0  0  0  0  0  0  0  0  0  0  0
  -11.3090    7.0443  -11.4321 C   0  0  0  0  0  0  0  0  0  0  0  0
  -16.5875    4.6658  -19.8341 C   0  0  0  0  0  0  0  0  0  0  0  0
  -11.9769    9.1193  -15.6844 C   0  0  0  0  0  0  0  0  0  0  0  0
  -13.1579    7.0598  -16.2355 C   0  0  0  0  0  0  0  0  0  0  0  0
  -13.3661    9.3697  -13.1864 C   0  0  0  0  0  0  0  0  0  0  0  0
  -13.2128    8.0885  -10.3927 C   0  0  0  0  0  0  0  0  0  0  0  0
  -12.2825    6.0636   -9.4413 C   0  0  0  0  0  0  0  0  0  0  0  0
  -11.3418    6.0723  -10.4496 C   0  0  0  0  0  0  0  0  0  0  0  0
  -15.1641    5.9773  -18.5626 C   0  0  0  0  0  0  0  0  0  0  0  0
  -16.0651    5.8057  -17.4758 C   0  0  0  0  0  0  0  0  0  0  0  0
  -12.8173    8.8136  -18.0128 C   0  0  0  0  0  0  0  0  0  0  0  0
  -17.5123    4.4539  -18.9050 N   0  0  0  0  0  0  0  0  0  0  0  0
  -14.0090    6.6823  -18.5249 N   0  0  0  0  0  0  0  0  0  0  0  0
  -12.9511    8.1168  -15.2498 N   0  0  0  0  0  0  0  0  0  0  0  0
  -12.2304    9.0276  -12.3559 N   0  0  0  0  0  0  0  0  0  0  0  0
  -14.6647    7.5108  -13.9369 O   0  0  0  0  0  0  0  0  0  0  0  0
  -10.1621    4.8030  -10.4913 Cl  0  0  0  0  0  0  0  0  0  0  0  0
  -14.3914    7.1186   -8.1711 Cl  0  0  0  0  0  0  0  0  0  0  0  0
  -18.8685    4.4944  -16.4718 H   0  0  0  0  0  0  0  0  0  0  0  0
  -15.4187    6.8217  -15.5584 H   0  0  0  0  0  0  0  0  0  0  0  0
  -17.6759    5.8460  -14.5815 H   0  0  0  0  0  0  0  0  0  0  0  0
  -12.0192    6.3643  -19.0987 H   0  0  0  0  0  0  0  0  0  0  0  0
  -13.2577    5.6527  -20.1878 H   0  0  0  0  0  0  0  0  0  0  0  0
  -12.9743    7.4265  -20.1878 H   0  0  0  0  0  0  0  0  0  0  0  0
  -14.6939    8.1728  -17.2593 H   0  0  0  0  0  0  0  0  0  0  0  0
  -13.4515   10.3535  -16.6408 H   0  0  0  0  0  0  0  0  0  0  0  0
  -11.7761   10.5488  -17.2712 H   0  0  0  0  0  0  0  0  0  0  0  0
  -10.5535    7.0087  -12.2308 H   0  0  0  0  0  0  0  0  0  0  0  0
  -16.7724    4.1895  -20.8083 H   0  0  0  0  0  0  0  0  0  0  0  0
  -11.0256    8.6270  -15.9350 H   0  0  0  0  0  0  0  0  0  0  0  0
  -11.8008    9.8461  -14.8777 H   0  0  0  0  0  0  0  0  0  0  0  0
  -13.8651    6.3151  -15.8415 H   0  0  0  0  0  0  0  0  0  0  0  0
  -12.2068    6.5541  -16.4588 H   0  0  0  0  0  0  0  0  0  0  0  0
  -13.1302   10.2769  -13.7620 H   0  0  0  0  0  0  0  0  0  0  0  0
  -14.2364    9.5408  -12.5357 H   0  0  0  0  0  0  0  0  0  0  0  0
  -13.9701    8.8858  -10.3635 H   0  0  0  0  0  0  0  0  0  0  0  0
  -12.2979    5.2740   -8.6756 H   0  0  0  0  0  0  0  0  0  0  0  0
  -11.8705    8.3722  -18.3574 H   0  0  0  0  0  0  0  0  0  0  0  0
  -13.3238    9.3329  -18.8397 H   0  0  0  0  0  0  0  0  0  0  0  0
  -11.3526    9.5458  -12.5037 H   0  0  0  0  0  0  0  0  0  0  0  0
  1 13  2  0
  1 20  1  0
  2  3  1  0
  2  5  1  0
  3 21  1  0
  3 23  2  0
  4  5  2  0
  4 21  1  0
  6 24  1  0
  7 15  1  0
  7 22  1  0
  7 24  1  0
  8 14  1  0
  8 22  1  0
  9 16  1  0
  9 25  1  0
  9 27  2  0
 10 12  2  0
 10 17  1  0
 10 26  1  0
 11 17  2  0
 11 18  1  0
 11 29  1  0
 12 19  1  0
 13 23  1  0
 14 25  1  0
 15 25  1  0
 16 26  1  0
 18 19  2  0
 19 28  1  0
 20 21  2  0
 20 24  1  0
  2 30  1  0
  4 31  1  0
  5 32  1  0
  6 33  1  0
  6 34  1  0
  6 35  1  0
  7 36  1  1
  8 37  1  0
  8 38  1  0
 12 39  1  0
 13 40  1  0
 14 41  1  0
 14 42  1  0
 15 43  1  0
 15 44  1  0
 16 45  1  0
 16 46  1  0
 17 47  1  0
 18 48  1  0
 22 49  1  0
 22 50  1  0
 26 51  1  0
M  END
>  <filename_input>  (14) 
8FLV_ZB9_docked.sdf

>  <pdb_id>  (14) 
8FLV_ZB9

>  <pose_rank>  (14) 
13

>  <num_atoms_heavy>  (14) 
29

>  <num_torsions>  (14) 
5

>  <pose>  (14) 
[-13.730992430820342, 7.701171427686864, -17.50486018084111, -0.13104872932941264, -0.17112425083448396, -0.23844934676880147, 5.926897692530853, 6.324651137841415, -4.500302702203729, -2.516079590172415, 5.452296995719424]

>  <energy>  (14) 
-1535.7475247538907

>  <inter_energy>  (14) 
-1583.4620898365038

>  <intra_energy>  (14) 
48.27968665988602

>  <rmsd>  (14) 
0.68282

>  <sdf_rank>  (14) 
0

$$$$

     RDKit          3D

 51 54  0  0  0  0  0  0  0  0999 V2000
  -15.2261    5.4204  -19.6665 N   0  0  0  0  0  0  0  0  0  0  0  0
  -18.0225    4.9803  -16.7656 N   0  0  0  0  0  0  0  0  0  0  0  0
  -17.1781    5.0595  -17.8377 C   0  0  0  0  0  0  0  0  0  0  0  0
  -16.1751    6.0331  -16.0452 C   0  0  0  0  0  0  0  0  0  0  0  0
  -17.4073    5.5760  -15.6869 C   0  0  0  0  0  0  0  0  0  0  0  0
  -12.7665    6.4603  -19.2532 C   0  0  0  0  0  0  0  0  0  0  0  0
  -13.5088    7.3440  -17.0568 C   0  0  1  0  0  0  0  0  0  0  0  0
  -13.9131    9.5027  -15.8273 C   0  0  0  0  0  0  0  0  0  0  0  0
  -11.1961    7.8698  -14.6216 C   0  0  0  0  0  0  0  0  0  0  0  0
  -10.9862   11.2473  -13.0536 C   0  0  0  0  0  0  0  0  0  0  0  0
  -12.2884   12.5024  -11.5005 C   0  0  0  0  0  0  0  0  0  0  0  0
   -9.9734   12.1894  -12.9541 C   0  0  0  0  0  0  0  0  0  0  0  0
  -16.3865    4.7971  -19.9054 C   0  0  0  0  0  0  0  0  0  0  0  0
  -12.4103    9.6911  -15.7582 C   0  0  0  0  0  0  0  0  0  0  0  0
  -12.0012    7.5923  -16.9277 C   0  0  0  0  0  0  0  0  0  0  0  0
  -10.9926    8.7910  -13.4316 C   0  0  0  0  0  0  0  0  0  0  0  0
  -12.1535   11.3940  -12.3140 C   0  0  0  0  0  0  0  0  0  0  0  0
  -11.3058   13.4634  -11.3812 C   0  0  0  0  0  0  0  0  0  0  0  0
  -10.1608   13.2818  -12.1278 C   0  0  0  0  0  0  0  0  0  0  0  0
  -14.9950    5.9053  -18.4228 C   0  0  0  0  0  0  0  0  0  0  0  0
  -15.9966    5.7215  -17.4300 C   0  0  0  0  0  0  0  0  0  0  0  0
  -14.2801    8.6612  -17.0484 C   0  0  0  0  0  0  0  0  0  0  0  0
  -17.4008    4.5864  -19.0745 N   0  0  0  0  0  0  0  0  0  0  0  0
  -13.8030    6.5193  -18.2355 N   0  0  0  0  0  0  0  0  0  0  0  0
  -11.7748    8.3731  -15.7149 N   0  0  0  0  0  0  0  0  0  0  0  0
  -10.8140   10.1625  -13.8601 N   0  0  0  0  0  0  0  0  0  0  0  0
  -10.8844    6.6804  -14.5447 O   0  0  0  0  0  0  0  0  0  0  0  0
   -8.9013   14.4672  -12.0124 Cl  0  0  0  0  0  0  0  0  0  0  0  0
  -13.7501   12.7098  -10.5864 Cl  0  0  0  0  0  0  0  0  0  0  0  0
  -18.9579    4.5492  -16.7646 H   0  0  0  0  0  0  0  0  0  0  0  0
  -15.4531    6.5455  -15.3924 H   0  0  0  0  0  0  0  0  0  0  0  0
  -17.8468    5.6690  -14.6829 H   0  0  0  0  0  0  0  0  0  0  0  0
  -11.7803    6.4042  -18.7692 H   0  0  0  0  0  0  0  0  0  0  0  0
  -12.9185    5.5693  -19.8802 H   0  0  0  0  0  0  0  0  0  0  0  0
  -12.8165    7.3627  -19.8802 H   0  0  0  0  0  0  0  0  0  0  0  0
  -13.8500    6.7742  -16.1799 H   0  0  0  0  0  0  0  0  0  0  0  0
  -14.2582    8.9919  -14.9162 H   0  0  0  0  0  0  0  0  0  0  0  0
  -14.3964   10.4874  -15.9097 H   0  0  0  0  0  0  0  0  0  0  0  0
   -9.0388   12.0698  -13.5218 H   0  0  0  0  0  0  0  0  0  0  0  0
  -16.5173    4.4077  -20.9258 H   0  0  0  0  0  0  0  0  0  0  0  0
  -12.0646   10.2399  -16.6466 H   0  0  0  0  0  0  0  0  0  0  0  0
  -12.1450   10.2654  -14.8584 H   0  0  0  0  0  0  0  0  0  0  0  0
  -11.4693    6.6320  -16.8582 H   0  0  0  0  0  0  0  0  0  0  0  0
  -11.6267    8.1360  -17.8077 H   0  0  0  0  0  0  0  0  0  0  0  0
  -11.8738    8.7310  -12.7759 H   0  0  0  0  0  0  0  0  0  0  0  0
  -10.0881    8.4721  -12.8929 H   0  0  0  0  0  0  0  0  0  0  0  0
  -12.9543   10.6424  -12.3752 H   0  0  0  0  0  0  0  0  0  0  0  0
  -11.4300   14.3343  -10.7208 H   0  0  0  0  0  0  0  0  0  0  0  0
  -14.0374    9.2260  -17.9606 H   0  0  0  0  0  0  0  0  0  0  0  0
  -15.3563    8.4369  -17.0089 H   0  0  0  0  0  0  0  0  0  0  0  0
  -10.5389   10.3291  -14.8386 H   0  0  0  0  0  0  0  0  0  0  0  0
  1 13  2  0
  1 20  1  0
  2  3  1  0
  2  5  1  0
  3 21  1  0
  3 23  2  0
  4  5  2  0
  4 21  1  0
  6 24  1  0
  7 15  1  0
  7 22  1  0
  7 24  1  0
  8 14  1  0
  8 22  1  0
  9 16  1  0
  9 25  1  0
  9 27  2  0
 10 12  2  0
 10 17  1  0
 10 26  1  0
 11 17  2  0
 11 18  1  0
 11 29  1  0
 12 19  1  0
 13 23  1  0
 14 25  1  0
 15 25  1  0
 16 26  1  0
 18 19  2  0
 19 28  1  0
 20 21  2  0
 20 24  1  0
  2 30  1  0
  4 31  1  0
  5 32  1  0
  6 33  1  0
  6 34  1  0
  6 35  1  0
  7 36  1  1
  8 37  1  0
  8 38  1  0
 12 39  1  0
 13 40  1  0
 14 41  1  0
 14 42  1  0
 15 43  1  0
 15 44  1  0
 16 45  1  0
 16 46  1  0
 17 47  1  0
 18 48  1  0
 22 49  1  0
 22 50  1  0
 26 51  1  0
M  END
>  <filename_input>  (15) 
8FLV_ZB9_docked.sdf

>  <pdb_id>  (15) 
8FLV_ZB9

>  <pose_rank>  (15) 
14

>  <num_atoms_heavy>  (15) 
29

>  <num_torsions>  (15) 
5

>  <pose>  (15) 
[-13.508758662543595, 7.343954353392304, -17.056822323281654, -1.3362681506735197, -3.261196183024957, -3.8731929431736587, 7.320351539378659, -6.14470904797501, 2.6431681687406945, 1.4860784770539883, -0.7882863730562024]

>  <energy>  (15) 
-1383.5335801731933

>  <inter_energy>  (15) 
-1460.642978737336

>  <intra_energy>  (15) 
67.88551765481546

>  <rmsd>  (15) 
3.94652

>  <sdf_rank>  (15) 
0

$$$$

     RDKit          3D

 51 54  0  0  0  0  0  0  0  0999 V2000
  -13.4181    6.8227  -19.6626 N   0  0  0  0  0  0  0  0  0  0  0  0
  -16.9090    5.8759  -17.8333 N   0  0  0  0  0  0  0  0  0  0  0  0
  -15.8098    6.1932  -18.5814 C   0  0  0  0  0  0  0  0  0  0  0  0
  -15.2045    6.1149  -16.3918 C   0  0  0  0  0  0  0  0  0  0  0  0
  -16.5325    5.8349  -16.5092 C   0  0  0  0  0  0  0  0  0  0  0  0
  -11.6063    5.8106  -17.0053 C   0  0  0  0  0  0  0  0  0  0  0  0
  -11.6247    8.2122  -17.6279 C   0  0  1  0  0  0  0  0  0  0  0  0
  -11.8264   10.7094  -17.8705 C   0  0  0  0  0  0  0  0  0  0  0  0
   -8.5895    9.7027  -17.9768 C   0  0  0  0  0  0  0  0  0  0  0  0
   -6.2352   11.7492  -19.5611 C   0  0  0  0  0  0  0  0  0  0  0  0
   -5.0270   13.4916  -20.6508 C   0  0  0  0  0  0  0  0  0  0  0  0
   -6.6136   11.2485  -20.7979 C   0  0  0  0  0  0  0  0  0  0  0  0
  -14.5404    6.6202  -20.3639 C   0  0  0  0  0  0  0  0  0  0  0  0
  -10.6827   10.6587  -18.8645 C   0  0  0  0  0  0  0  0  0  0  0  0
  -10.4594    8.2437  -18.6239 C   0  0  0  0  0  0  0  0  0  0  0  0
   -8.0034   11.1030  -17.9387 C   0  0  0  0  0  0  0  0  0  0  0  0
   -5.4253   12.8755  -19.4803 C   0  0  0  0  0  0  0  0  0  0  0  0
   -5.3888   13.0266  -21.8983 C   0  0  0  0  0  0  0  0  0  0  0  0
   -6.1902   11.9051  -21.9383 C   0  0  0  0  0  0  0  0  0  0  0  0
  -13.4658    6.7010  -18.3142 C   0  0  0  0  0  0  0  0  0  0  0  0
  -14.7071    6.3573  -17.7112 C   0  0  0  0  0  0  0  0  0  0  0  0
  -12.5784    9.3796  -17.8688 C   0  0  0  0  0  0  0  0  0  0  0  0
  -15.7545    6.3207  -19.9171 N   0  0  0  0  0  0  0  0  0  0  0  0
  -12.3010    6.9092  -17.6564 N   0  0  0  0  0  0  0  0  0  0  0  0
   -9.8035    9.5432  -18.5100 N   0  0  0  0  0  0  0  0  0  0  0  0
   -6.6407   11.1100  -18.4280 N   0  0  0  0  0  0  0  0  0  0  0  0
   -7.9758    8.7602  -17.4738 O   0  0  0  0  0  0  0  0  0  0  0  0
   -6.6731   11.2883  -23.4847 Cl  0  0  0  0  0  0  0  0  0  0  0  0
   -4.0319   14.9120  -20.5648 Cl  0  0  0  0  0  0  0  0  0  0  0  0
  -17.8559    5.6980  -18.1973 H   0  0  0  0  0  0  0  0  0  0  0  0
  -14.6238    6.1482  -15.4582 H   0  0  0  0  0  0  0  0  0  0  0  0
  -17.2057    5.6091  -15.6691 H   0  0  0  0  0  0  0  0  0  0  0  0
  -11.6794    5.9261  -15.9138 H   0  0  0  0  0  0  0  0  0  0  0  0
  -12.0661    4.8572  -17.3047 H   0  0  0  0  0  0  0  0  0  0  0  0
  -10.5479    5.8172  -17.3047 H   0  0  0  0  0  0  0  0  0  0  0  0
  -11.2246    8.3379  -16.6109 H   0  0  0  0  0  0  0  0  0  0  0  0
  -11.4260   10.9024  -16.8643 H   0  0  0  0  0  0  0  0  0  0  0  0
  -12.5186   11.5145  -18.1582 H   0  0  0  0  0  0  0  0  0  0  0  0
   -7.2386   10.3462  -20.8699 H   0  0  0  0  0  0  0  0  0  0  0  0
  -14.4440    6.7145  -21.4556 H   0  0  0  0  0  0  0  0  0  0  0  0
  -11.0802   10.5091  -19.8792 H   0  0  0  0  0  0  0  0  0  0  0  0
  -10.1199   11.6034  -18.8375 H   0  0  0  0  0  0  0  0  0  0  0  0
   -9.7440    7.4424  -18.3869 H   0  0  0  0  0  0  0  0  0  0  0  0
  -10.8284    8.0904  -19.6488 H   0  0  0  0  0  0  0  0  0  0  0  0
   -8.6149   11.7659  -18.5684 H   0  0  0  0  0  0  0  0  0  0  0  0
   -8.0026   11.4536  -16.8961 H   0  0  0  0  0  0  0  0  0  0  0  0
   -5.1076   13.2688  -18.5033 H   0  0  0  0  0  0  0  0  0  0  0  0
   -5.0535   13.5274  -22.8185 H   0  0  0  0  0  0  0  0  0  0  0  0
  -13.0732    9.2448  -18.8419 H   0  0  0  0  0  0  0  0  0  0  0  0
  -13.3214    9.3982  -17.0579 H   0  0  0  0  0  0  0  0  0  0  0  0
   -5.9313   10.5984  -17.8841 H   0  0  0  0  0  0  0  0  0  0  0  0
  1 13  2  0
  1 20  1  0
  2  3  1  0
  2  5  1  0
  3 21  1  0
  3 23  2  0
  4  5  2  0
  4 21  1  0
  6 24  1  0
  7 15  1  0
  7 22  1  0
  7 24  1  0
  8 14  1  0
  8 22  1  0
  9 16  1  0
  9 25  1  0
  9 27  2  0
 10 12  2  0
 10 17  1  0
 10 26  1  0
 11 17  2  0
 11 18  1  0
 11 29  1  0
 12 19  1  0
 13 23  1  0
 14 25  1  0
 15 25  1  0
 16 26  1  0
 18 19  2  0
 19 28  1  0
 20 21  2  0
 20 24  1  0
  2 30  1  0
  4 31  1  0
  5 32  1  0
  6 33  1  0
  6 34  1  0
  6 35  1  0
  7 36  1  1
  8 37  1  0
  8 38  1  0
 12 39  1  0
 13 40  1  0
 14 41  1  0
 14 42  1  0
 15 43  1  0
 15 44  1  0
 16 45  1  0
 16 46  1  0
 17 47  1  0
 18 48  1  0
 22 49  1  0
 22 50  1  0
 26 51  1  0
M  END
>  <filename_input>  (16) 
8FLV_ZB9_docked.sdf

>  <pdb_id>  (16) 
8FLV_ZB9

>  <pose_rank>  (16) 
15

>  <num_atoms_heavy>  (16) 
29

>  <num_torsions>  (16) 
5

>  <pose>  (16) 
[-11.62469271846791, 8.21222595127074, -17.627858494211413, 0.3396428463274519, -4.445633564273421, -1.3601121920468855, -9.883966005306327, -1.6267506136878815, 0.8562511018108953, 0.6872167258597036, 2.0337874722362446]

>  <energy>  (16) 
-412.35786190510174

>  <inter_energy>  (16) 
-424.2050353601312

>  <intra_energy>  (16) 
9.375791785374467

>  <rmsd>  (16) 
8.62438

>  <sdf_rank>  (16) 
0

$$$$

     RDKit          3D

 51 54  0  0  0  0  0  0  0  0999 V2000
  -15.6708    6.0906  -20.3037 N   0  0  0  0  0  0  0  0  0  0  0  0
  -17.0930    5.7918  -16.5199 N   0  0  0  0  0  0  0  0  0  0  0  0
  -16.7558    5.8634  -17.8428 C   0  0  0  0  0  0  0  0  0  0  0  0
  -14.9028    6.2791  -16.5936 C   0  0  0  0  0  0  0  0  0  0  0  0
  -15.9651    6.0489  -15.7727 C   0  0  0  0  0  0  0  0  0  0  0  0
  -13.0159    6.3042  -20.8691 C   0  0  0  0  0  0  0  0  0  0  0  0
  -12.6653    7.2989  -18.6234 C   0  0  1  0  0  0  0  0  0  0  0  0
  -10.6312    8.7525  -18.3319 C   0  0  0  0  0  0  0  0  0  0  0  0
  -11.5775    7.3284  -15.4029 C   0  0  0  0  0  0  0  0  0  0  0  0
  -10.2814   10.4888  -13.8636 C   0  0  0  0  0  0  0  0  0  0  0  0
  -10.3435   11.9044  -11.9465 C   0  0  0  0  0  0  0  0  0  0  0  0
   -9.0136   10.9639  -14.1639 C   0  0  0  0  0  0  0  0  0  0  0  0
  -16.9517    5.7852  -20.0623 C   0  0  0  0  0  0  0  0  0  0  0  0
  -10.1040    7.7358  -17.3385 C   0  0  0  0  0  0  0  0  0  0  0  0
  -12.0774    6.3282  -17.5923 C   0  0  0  0  0  0  0  0  0  0  0  0
  -10.6105    8.1203  -14.5405 C   0  0  0  0  0  0  0  0  0  0  0  0
  -10.9540   10.9519  -12.7392 C   0  0  0  0  0  0  0  0  0  0  0  0
   -9.0868   12.4052  -12.2172 C   0  0  0  0  0  0  0  0  0  0  0  0
   -8.4494   11.9194  -13.3393 C   0  0  0  0  0  0  0  0  0  0  0  0
  -14.8443    6.2974  -19.2504 C   0  0  0  0  0  0  0  0  0  0  0  0
  -15.3791    6.1730  -17.9385 C   0  0  0  0  0  0  0  0  0  0  0  0
  -11.5585    8.0712  -19.3368 C   0  0  0  0  0  0  0  0  0  0  0  0
  -17.5690    5.6649  -18.8927 N   0  0  0  0  0  0  0  0  0  0  0  0
  -13.5588    6.5957  -19.5524 N   0  0  0  0  0  0  0  0  0  0  0  0
  -11.2414    7.0967  -16.6745 N   0  0  0  0  0  0  0  0  0  0  0  0
  -10.8485    9.5432  -14.6642 N   0  0  0  0  0  0  0  0  0  0  0  0
  -12.6628    6.9673  -14.9453 O   0  0  0  0  0  0  0  0  0  0  0  0
   -6.8703   12.5241  -13.7207 Cl  0  0  0  0  0  0  0  0  0  0  0  0
  -11.1805   12.5076  -10.5498 Cl  0  0  0  0  0  0  0  0  0  0  0  0
  -18.0295    5.5816  -16.1463 H   0  0  0  0  0  0  0  0  0  0  0  0
  -13.8724    6.5043  -16.2813 H   0  0  0  0  0  0  0  0  0  0  0  0
  -15.9275    6.0658  -14.6734 H   0  0  0  0  0  0  0  0  0  0  0  0
  -12.0514    5.7863  -20.7616 H   0  0  0  0  0  0  0  0  0  0  0  0
  -13.7176    5.6615  -21.4210 H   0  0  0  0  0  0  0  0  0  0  0  0
  -12.8678    7.2441  -21.4210 H   0  0  0  0  0  0  0  0  0  0  0  0
  -13.2800    8.0443  -18.0975 H   0  0  0  0  0  0  0  0  0  0  0  0
  -11.1887    9.5327  -17.7930 H   0  0  0  0  0  0  0  0  0  0  0  0
   -9.7844    9.2027  -18.8707 H   0  0  0  0  0  0  0  0  0  0  0  0
   -8.4673   10.5877  -15.0415 H   0  0  0  0  0  0  0  0  0  0  0  0
  -17.5760    5.6107  -20.9511 H   0  0  0  0  0  0  0  0  0  0  0  0
   -9.5088    6.9762  -17.8665 H   0  0  0  0  0  0  0  0  0  0  0  0
   -9.4663    8.2344  -16.5937 H   0  0  0  0  0  0  0  0  0  0  0  0
  -12.8897    5.8378  -17.0357 H   0  0  0  0  0  0  0  0  0  0  0  0
  -11.4805    5.5526  -18.0945 H   0  0  0  0  0  0  0  0  0  0  0  0
  -10.7410    7.8240  -13.4892 H   0  0  0  0  0  0  0  0  0  0  0  0
   -9.5854    7.9064  -14.8775 H   0  0  0  0  0  0  0  0  0  0  0  0
  -11.9529   10.5676  -12.4854 H   0  0  0  0  0  0  0  0  0  0  0  0
   -8.6151   13.1574  -11.5678 H   0  0  0  0  0  0  0  0  0  0  0  0
  -10.9717    7.3731  -19.9519 H   0  0  0  0  0  0  0  0  0  0  0  0
  -12.0213    8.8448  -19.9671 H   0  0  0  0  0  0  0  0  0  0  0  0
  -11.4885    9.8614  -15.4059 H   0  0  0  0  0  0  0  0  0  0  0  0
  1 13  2  0
  1 20  1  0
  2  3  1  0
  2  5  1  0
  3 21  1  0
  3 23  2  0
  4  5  2  0
  4 21  1  0
  6 24  1  0
  7 15  1  0
  7 22  1  0
  7 24  1  0
  8 14  1  0
  8 22  1  0
  9 16  1  0
  9 25  1  0
  9 27  2  0
 10 12  2  0
 10 17  1  0
 10 26  1  0
 11 17  2  0
 11 18  1  0
 11 29  1  0
 12 19  1  0
 13 23  1  0
 14 25  1  0
 15 25  1  0
 16 26  1  0
 18 19  2  0
 19 28  1  0
 20 21  2  0
 20 24  1  0
  2 30  1  0
  4 31  1  0
  5 32  1  0
  6 33  1  0
  6 34  1  0
  6 35  1  0
  7 36  1  1
  8 37  1  0
  8 38  1  0
 12 39  1  0
 13 40  1  0
 14 41  1  0
 14 42  1  0
 15 43  1  0
 15 44  1  0
 16 45  1  0
 16 46  1  0
 17 47  1  0
 18 48  1  0
 22 49  1  0
 22 50  1  0
 26 51  1  0
M  END
>  <filename_input>  (17) 
8FLV_ZB9_docked.sdf

>  <pdb_id>  (17) 
8FLV_ZB9

>  <pose_rank>  (17) 
16

>  <num_atoms_heavy>  (17) 
29

>  <num_torsions>  (17) 
5

>  <pose>  (17) 
[-12.665267465714026, 7.298908738992105, -18.623391838282625, 0.9704253977325785, -1.3135325276665137, 5.411096098721594, 12.146432408277729, 6.267221359139986, -7.880602486076856, 1.6413717437117645, -1.5382914844448092]

>  <energy>  (17) 
-636.7625574729632

>  <inter_energy>  (17) 
-719.8632308220793

>  <intra_energy>  (17) 
58.64847953877228

>  <rmsd>  (17) 
4.12206

>  <sdf_rank>  (17) 
0

$$$$

     RDKit          3D

 51 54  0  0  0  0  0  0  0  0999 V2000
  -15.7053    6.0405  -17.5421 N   0  0  0  0  0  0  0  0  0  0  0  0
  -16.6083    4.1752  -21.0256 N   0  0  0  0  0  0  0  0  0  0  0  0
  -16.4399    4.7571  -19.8001 C   0  0  0  0  0  0  0  0  0  0  0  0
  -14.5778    5.1325  -21.0485 C   0  0  0  0  0  0  0  0  0  0  0  0
  -15.4739    4.4049  -21.7719 C   0  0  0  0  0  0  0  0  0  0  0  0
  -12.5156    6.5232  -19.2378 C   0  0  0  0  0  0  0  0  0  0  0  0
  -13.4473    7.5982  -17.2050 C   0  0  1  0  0  0  0  0  0  0  0  0
  -12.6396    9.8569  -16.4425 C   0  0  0  0  0  0  0  0  0  0  0  0
  -13.0942    7.7459  -13.8273 C   0  0  0  0  0  0  0  0  0  0  0  0
  -12.0710    7.4208  -10.8534 C   0  0  0  0  0  0  0  0  0  0  0  0
  -13.2227    6.5895   -8.9389 C   0  0  0  0  0  0  0  0  0  0  0  0
  -11.3049    6.2652  -10.8849 C   0  0  0  0  0  0  0  0  0  0  0  0
  -16.8833    5.4303  -17.7214 C   0  0  0  0  0  0  0  0  0  0  0  0
  -11.8054    9.1521  -15.3908 C   0  0  0  0  0  0  0  0  0  0  0  0
  -12.5951    6.9589  -16.1022 C   0  0  0  0  0  0  0  0  0  0  0  0
  -12.8827    8.7999  -12.7549 C   0  0  0  0  0  0  0  0  0  0  0  0
  -13.0484    7.5860   -9.8795 C   0  0  0  0  0  0  0  0  0  0  0  0
  -12.4754    5.4298   -8.9344 C   0  0  0  0  0  0  0  0  0  0  0  0
  -11.5176    5.3004   -9.9180 C   0  0  0  0  0  0  0  0  0  0  0  0
  -14.8083    6.0287  -18.5574 C   0  0  0  0  0  0  0  0  0  0  0  0
  -15.1670    5.3727  -19.7671 C   0  0  0  0  0  0  0  0  0  0  0  0
  -12.8571    8.9364  -17.6422 C   0  0  0  0  0  0  0  0  0  0  0  0
  -17.3210    4.7695  -18.7869 N   0  0  0  0  0  0  0  0  0  0  0  0
  -13.6373    6.6668  -18.3241 N   0  0  0  0  0  0  0  0  0  0  0  0
  -12.4866    7.9154  -15.0044 N   0  0  0  0  0  0  0  0  0  0  0  0
  -11.8763    8.3787  -11.8028 N   0  0  0  0  0  0  0  0  0  0  0  0
  -13.8538    6.7977  -13.6228 O   0  0  0  0  0  0  0  0  0  0  0  0
  -10.5519    3.8612   -9.9480 Cl  0  0  0  0  0  0  0  0  0  0  0  0
  -14.4261    6.7913   -7.7034 Cl  0  0  0  0  0  0  0  0  0  0  0  0
  -17.4405    3.6544  -21.3371 H   0  0  0  0  0  0  0  0  0  0  0  0
  -13.5873    5.4716  -21.3861 H   0  0  0  0  0  0  0  0  0  0  0  0
  -15.3147    4.0525  -22.8016 H   0  0  0  0  0  0  0  0  0  0  0  0
  -11.5863    6.4042  -18.6615 H   0  0  0  0  0  0  0  0  0  0  0  0
  -12.6700    5.6375  -19.8716 H   0  0  0  0  0  0  0  0  0  0  0  0
  -12.4419    7.4193  -19.8716 H   0  0  0  0  0  0  0  0  0  0  0  0
  -14.4472    7.8130  -16.8000 H   0  0  0  0  0  0  0  0  0  0  0  0
  -13.6142   10.1295  -16.0115 H   0  0  0  0  0  0  0  0  0  0  0  0
  -12.1111   10.7627  -16.7744 H   0  0  0  0  0  0  0  0  0  0  0  0
  -10.5426    6.1191  -11.6644 H   0  0  0  0  0  0  0  0  0  0  0  0
  -17.5817    5.4834  -16.8732 H   0  0  0  0  0  0  0  0  0  0  0  0
  -10.8132    8.9154  -15.8026 H   0  0  0  0  0  0  0  0  0  0  0  0
  -11.6812    9.8025  -14.5124 H   0  0  0  0  0  0  0  0  0  0  0  0
  -13.0761    6.0357  -15.7468 H   0  0  0  0  0  0  0  0  0  0  0  0
  -11.5969    6.7060  -16.4889 H   0  0  0  0  0  0  0  0  0  0  0  0
  -12.5575    9.7368  -13.2308 H   0  0  0  0  0  0  0  0  0  0  0  0
  -13.8314    8.9485  -12.2184 H   0  0  0  0  0  0  0  0  0  0  0  0
  -13.6711    8.4926   -9.8581 H   0  0  0  0  0  0  0  0  0  0  0  0
  -12.6362    4.6446   -8.1810 H   0  0  0  0  0  0  0  0  0  0  0  0
  -11.8919    8.7587  -18.1389 H   0  0  0  0  0  0  0  0  0  0  0  0
  -13.5624    9.4216  -18.3329 H   0  0  0  0  0  0  0  0  0  0  0  0
  -10.9529    8.8328  -11.8461 H   0  0  0  0  0  0  0  0  0  0  0  0
  1 13  2  0
  1 20  1  0
  2  3  1  0
  2  5  1  0
  3 21  1  0
  3 23  2  0
  4  5  2  0
  4 21  1  0
  6 24  1  0
  7 15  1  0
  7 22  1  0
  7 24  1  0
  8 14  1  0
  8 22  1  0
  9 16  1  0
  9 25  1  0
  9 27  2  0
 10 12  2  0
 10 17  1  0
 10 26  1  0
 11 17  2  0
 11 18  1  0
 11 29  1  0
 12 19  1  0
 13 23  1  0
 14 25  1  0
 15 25  1  0
 16 26  1  0
 18 19  2  0
 19 28  1  0
 20 21  2  0
 20 24  1  0
  2 30  1  0
  4 31  1  0
  5 32  1  0
  6 33  1  0
  6 34  1  0
  6 35  1  0
  7 36  1  1
  8 37  1  0
  8 38  1  0
 12 39  1  0
 13 40  1  0
 14 41  1  0
 14 42  1  0
 15 43  1  0
 15 44  1  0
 16 45  1  0
 16 46  1  0
 17 47  1  0
 18 48  1  0
 22 49  1  0
 22 50  1  0
 26 51  1  0
M  END
>  <filename_input>  (18) 
8FLV_ZB9_docked.sdf

>  <pdb_id>  (18) 
8FLV_ZB9

>  <pose_rank>  (18) 
17

>  <num_atoms_heavy>  (18) 
29

>  <num_torsions>  (18) 
5

>  <pose>  (18) 
[-13.447335999180194, 7.598218047558115, -17.205010462555492, -0.23612020785087612, 5.641910494740403, 2.6189394241363964, 0.008993842419364122, 3.2553281622136434, -4.851849982365381, 3.681780845995247, -0.9547437776466797]

>  <energy>  (18) 
-962.3059654639702

>  <inter_energy>  (18) 
-964.2906194005541

>  <intra_energy>  (18) 
18.34030018097144

>  <rmsd>  (18) 
2.0371

>  <sdf_rank>  (18) 
0

$$$$

     RDKit          3D

 51 54  0  0  0  0  0  0  0  0999 V2000
  -15.6445    5.3766  -19.6925 N   0  0  0  0  0  0  0  0  0  0  0  0
  -18.1158    4.9901  -16.5031 N   0  0  0  0  0  0  0  0  0  0  0  0
  -17.3932    5.0559  -17.6616 C   0  0  0  0  0  0  0  0  0  0  0  0
  -16.1649    5.9712  -15.9823 C   0  0  0  0  0  0  0  0  0  0  0  0
  -17.3648    5.5503  -15.4938 C   0  0  0  0  0  0  0  0  0  0  0  0
  -13.0642    6.2023  -19.4806 C   0  0  0  0  0  0  0  0  0  0  0  0
  -13.6361    7.3271  -17.3443 C   0  0  1  0  0  0  0  0  0  0  0  0
  -12.3893    9.4159  -16.6980 C   0  0  0  0  0  0  0  0  0  0  0  0
  -13.1569    7.5309  -13.9851 C   0  0  0  0  0  0  0  0  0  0  0  0
  -11.3661    7.1800  -11.4018 C   0  0  0  0  0  0  0  0  0  0  0  0
  -11.8875    6.2621   -9.2644 C   0  0  0  0  0  0  0  0  0  0  0  0
  -10.6293    6.0439  -11.7015 C   0  0  0  0  0  0  0  0  0  0  0  0
  -16.8451    4.7955  -19.8070 C   0  0  0  0  0  0  0  0  0  0  0  0
  -11.6726    8.6042  -15.6368 C   0  0  0  0  0  0  0  0  0  0  0  0
  -12.8877    6.5780  -16.2353 C   0  0  0  0  0  0  0  0  0  0  0  0
  -12.7152    8.5642  -12.9639 C   0  0  0  0  0  0  0  0  0  0  0  0
  -12.0127    7.2917  -10.1769 C   0  0  0  0  0  0  0  0  0  0  0  0
  -11.1580    5.1204   -9.5243 C   0  0  0  0  0  0  0  0  0  0  0  0
  -10.5335    5.0443  -10.7514 C   0  0  0  0  0  0  0  0  0  0  0  0
  -15.2605    5.8366  -18.4775 C   0  0  0  0  0  0  0  0  0  0  0  0
  -16.1517    5.6726  -17.3814 C   0  0  0  0  0  0  0  0  0  0  0  0
  -12.8153    8.5099  -17.8519 C   0  0  0  0  0  0  0  0  0  0  0  0
  -17.7677    4.6073  -18.8706 N   0  0  0  0  0  0  0  0  0  0  0  0
  -14.0347    6.4081  -18.4179 N   0  0  0  0  0  0  0  0  0  0  0  0
  -12.5648    7.5364  -15.1821 N   0  0  0  0  0  0  0  0  0  0  0  0
  -11.4739    8.1717  -12.3301 N   0  0  0  0  0  0  0  0  0  0  0  0
  -14.0767    6.7543  -13.7227 O   0  0  0  0  0  0  0  0  0  0  0  0
   -9.6020    3.6294  -11.1192 Cl  0  0  0  0  0  0  0  0  0  0  0  0
  -12.6728    6.3968   -7.7215 Cl  0  0  0  0  0  0  0  0  0  0  0  0
  -19.0597    4.5903  -16.4024 H   0  0  0  0  0  0  0  0  0  0  0  0
  -15.3578    6.4504  -15.4088 H   0  0  0  0  0  0  0  0  0  0  0  0
  -17.6869    5.6443  -14.4462 H   0  0  0  0  0  0  0  0  0  0  0  0
  -12.0779    5.9932  -19.0409 H   0  0  0  0  0  0  0  0  0  0  0  0
  -13.3766    5.3504  -20.1025 H   0  0  0  0  0  0  0  0  0  0  0  0
  -13.0039    7.1077  -20.1025 H   0  0  0  0  0  0  0  0  0  0  0  0
  -14.5637    7.7447  -16.9257 H   0  0  0  0  0  0  0  0  0  0  0  0
  -13.2802    9.8863  -16.2565 H   0  0  0  0  0  0  0  0  0  0  0  0
  -11.7083   10.1905  -17.0804 H   0  0  0  0  0  0  0  0  0  0  0  0
  -10.1307    5.9402  -12.6765 H   0  0  0  0  0  0  0  0  0  0  0  0
  -17.1015    4.4245  -20.8103 H   0  0  0  0  0  0  0  0  0  0  0  0
  -10.7570    8.1663  -16.0609 H   0  0  0  0  0  0  0  0  0  0  0  0
  -11.3996    9.2511  -14.7901 H   0  0  0  0  0  0  0  0  0  0  0  0
  -13.5246    5.7782  -15.8296 H   0  0  0  0  0  0  0  0  0  0  0  0
  -11.9685    6.1241  -16.6338 H   0  0  0  0  0  0  0  0  0  0  0  0
  -12.5709    9.5304  -13.4695 H   0  0  0  0  0  0  0  0  0  0  0  0
  -13.4927    8.6459  -12.1900 H   0  0  0  0  0  0  0  0  0  0  0  0
  -12.6124    8.1825   -9.9385 H   0  0  0  0  0  0  0  0  0  0  0  0
  -11.0782    4.3082   -8.7868 H   0  0  0  0  0  0  0  0  0  0  0  0
  -11.9175    8.1319  -18.3628 H   0  0  0  0  0  0  0  0  0  0  0  0
  -13.4362    9.0951  -18.5462 H   0  0  0  0  0  0  0  0  0  0  0  0
  -10.6163    8.6750  -12.5985 H   0  0  0  0  0  0  0  0  0  0  0  0
  1 13  2  0
  1 20  1  0
  2  3  1  0
  2  5  1  0
  3 21  1  0
  3 23  2  0
  4  5  2  0
  4 21  1  0
  6 24  1  0
  7 15  1  0
  7 22  1  0
  7 24  1  0
  8 14  1  0
  8 22  1  0
  9 16  1  0
  9 25  1  0
  9 27  2  0
 10 12  2  0
 10 17  1  0
 10 26  1  0
 11 17  2  0
 11 18  1  0
 11 29  1  0
 12 19  1  0
 13 23  1  0
 14 25  1  0
 15 25  1  0
 16 26  1  0
 18 19  2  0
 19 28  1  0
 20 21  2  0
 20 24  1  0
  2 30  1  0
  4 31  1  0
  5 32  1  0
  6 33  1  0
  6 34  1  0
  6 35  1  0
  7 36  1  1
  8 37  1  0
  8 38  1  0
 12 39  1  0
 13 40  1  0
 14 41  1  0
 14 42  1  0
 15 43  1  0
 15 44  1  0
 16 45  1  0
 16 46  1  0
 17 47  1  0
 18 48  1  0
 22 49  1  0
 22 50  1  0
 26 51  1  0
M  END
>  <filename_input>  (19) 
8FLV_ZB9_docked.sdf

>  <pdb_id>  (19) 
8FLV_ZB9

>  <pose_rank>  (19) 
18

>  <num_atoms_heavy>  (19) 
29

>  <num_torsions>  (19) 
5

>  <pose>  (19) 
[-13.636082036632645, 7.327103840589209, -17.344313605774644, -0.04361430789066602, -0.02639670687167435, -0.21602542151908005, 6.109668644458974, 6.299536071858799, -4.501617549166413, -2.603643496032217, 5.2843077839209105]

>  <energy>  (19) 
-1508.5222795729944

>  <inter_energy>  (19) 
-1551.8006748716743

>  <intra_energy>  (19) 
28.963149176484027

>  <rmsd>  (19) 
1.04236

>  <sdf_rank>  (19) 
0

$$$$

     RDKit          3D

 51 54  0  0  0  0  0  0  0  0999 V2000
  -15.3271    5.9284  -20.1031 N   0  0  0  0  0  0  0  0  0  0  0  0
  -16.8011    5.0860  -16.4226 N   0  0  0  0  0  0  0  0  0  0  0  0
  -16.4284    5.3016  -17.7200 C   0  0  0  0  0  0  0  0  0  0  0  0
  -14.8561    6.2047  -16.3492 C   0  0  0  0  0  0  0  0  0  0  0  0
  -15.8446    5.6400  -15.6011 C   0  0  0  0  0  0  0  0  0  0  0  0
  -13.1771    7.5195  -20.5326 C   0  0  0  0  0  0  0  0  0  0  0  0
  -12.5705    7.3513  -18.1327 C   0  0  1  0  0  0  0  0  0  0  0  0
  -10.7198    6.5776  -16.6124 C   0  0  0  0  0  0  0  0  0  0  0  0
  -12.0790    9.4938  -15.5397 C   0  0  0  0  0  0  0  0  0  0  0  0
  -11.6225    8.9307  -12.1777 C   0  0  0  0  0  0  0  0  0  0  0  0
  -10.5406    7.0923  -11.1133 C   0  0  0  0  0  0  0  0  0  0  0  0
  -12.6184    8.8932  -11.2132 C   0  0  0  0  0  0  0  0  0  0  0  0
  -16.4694    5.2477  -19.9485 C   0  0  0  0  0  0  0  0  0  0  0  0
  -11.5315    7.0910  -15.4393 C   0  0  0  0  0  0  0  0  0  0  0  0
  -13.3223    7.8662  -16.8995 C   0  0  0  0  0  0  0  0  0  0  0  0
  -11.0460    9.7421  -14.4549 C   0  0  0  0  0  0  0  0  0  0  0  0
  -10.5649    8.0307  -12.1268 C   0  0  0  0  0  0  0  0  0  0  0  0
  -11.5164    7.0203  -10.1406 C   0  0  0  0  0  0  0  0  0  0  0  0
  -12.5480    7.9318  -10.2224 C   0  0  0  0  0  0  0  0  0  0  0  0
  -14.6595    6.3340  -18.9962 C   0  0  0  0  0  0  0  0  0  0  0  0
  -15.2041    6.0097  -17.7231 C   0  0  0  0  0  0  0  0  0  0  0  0
  -11.6477    6.1928  -17.7633 C   0  0  0  0  0  0  0  0  0  0  0  0
  -17.0860    4.9078  -18.8226 N   0  0  0  0  0  0  0  0  0  0  0  0
  -13.5073    7.0115  -19.2111 N   0  0  0  0  0  0  0  0  0  0  0  0
  -12.3341    8.2300  -15.8881 N   0  0  0  0  0  0  0  0  0  0  0  0
  -11.6756    9.8758  -13.1578 N   0  0  0  0  0  0  0  0  0  0  0  0
  -12.6154   10.4431  -16.1135 O   0  0  0  0  0  0  0  0  0  0  0  0
  -13.7988    7.8751   -9.0237 Cl  0  0  0  0  0  0  0  0  0  0  0  0
   -9.2362    5.9480  -11.0489 Cl  0  0  0  0  0  0  0  0  0  0  0  0
  -17.6512    4.5938  -16.1127 H   0  0  0  0  0  0  0  0  0  0  0  0
  -13.9590    6.7148  -15.9685 H   0  0  0  0  0  0  0  0  0  0  0  0
  -15.8745    5.6283  -14.5016 H   0  0  0  0  0  0  0  0  0  0  0  0
  -12.5799    8.4380  -20.4337 H   0  0  0  0  0  0  0  0  0  0  0  0
  -12.5977    6.7628  -21.0821 H   0  0  0  0  0  0  0  0  0  0  0  0
  -14.1037    7.7420  -21.0821 H   0  0  0  0  0  0  0  0  0  0  0  0
  -11.9264    8.1563  -18.5163 H   0  0  0  0  0  0  0  0  0  0  0  0
  -10.0291    7.3647  -16.9493 H   0  0  0  0  0  0  0  0  0  0  0  0
  -10.1506    5.6910  -16.2963 H   0  0  0  0  0  0  0  0  0  0  0  0
  -13.4483    9.6148  -11.2362 H   0  0  0  0  0  0  0  0  0  0  0  0
  -16.9630    4.9272  -20.8779 H   0  0  0  0  0  0  0  0  0  0  0  0
  -12.1936    6.2940  -15.0700 H   0  0  0  0  0  0  0  0  0  0  0  0
  -10.8599    7.4025  -14.6257 H   0  0  0  0  0  0  0  0  0  0  0  0
  -13.9223    8.7478  -17.1692 H   0  0  0  0  0  0  0  0  0  0  0  0
  -13.9978    7.0894  -16.5118 H   0  0  0  0  0  0  0  0  0  0  0  0
  -10.3429    8.8965  -14.4277 H   0  0  0  0  0  0  0  0  0  0  0  0
  -10.5155   10.6780  -14.6845 H   0  0  0  0  0  0  0  0  0  0  0  0
   -9.7628    8.0649  -12.8787 H   0  0  0  0  0  0  0  0  0  0  0  0
  -11.4735    6.2704   -9.3370 H   0  0  0  0  0  0  0  0  0  0  0  0
  -12.2581    5.3294  -17.4599 H   0  0  0  0  0  0  0  0  0  0  0  0
  -11.0330    5.9411  -18.6400 H   0  0  0  0  0  0  0  0  0  0  0  0
  -12.1977   10.7421  -12.9633 H   0  0  0  0  0  0  0  0  0  0  0  0
  1 13  2  0
  1 20  1  0
  2  3  1  0
  2  5  1  0
  3 21  1  0
  3 23  2  0
  4  5  2  0
  4 21  1  0
  6 24  1  0
  7 15  1  0
  7 22  1  0
  7 24  1  0
  8 14  1  0
  8 22  1  0
  9 16  1  0
  9 25  1  0
  9 27  2  0
 10 12  2  0
 10 17  1  0
 10 26  1  0
 11 17  2  0
 11 18  1  0
 11 29  1  0
 12 19  1  0
 13 23  1  0
 14 25  1  0
 15 25  1  0
 16 26  1  0
 18 19  2  0
 19 28  1  0
 20 21  2  0
 20 24  1  0
  2 30  1  0
  4 31  1  0
  5 32  1  0
  6 33  1  0
  6 34  1  0
  6 35  1  0
  7 36  1  6
  8 37  1  0
  8 38  1  0
 12 39  1  0
 13 40  1  0
 14 41  1  0
 14 42  1  0
 15 43  1  0
 15 44  1  0
 16 45  1  0
 16 46  1  0
 17 47  1  0
 18 48  1  0
 22 49  1  0
 22 50  1  0
 26 51  1  0
M  END
>  <filename_input>  (20) 
8FLV_ZB9_docked.sdf

>  <pdb_id>  (20) 
8FLV_ZB9

>  <pose_rank>  (20) 
19

>  <num_atoms_heavy>  (20) 
29

>  <num_torsions>  (20) 
5

>  <pose>  (20) 
[-12.570509458887953, 7.351303103143829, -18.13272178657156, -0.7074601252640739, -0.7509657843798687, -1.9165080459578472, -2.5986863243974585, 0.5315205010018195, 1.5074219925424643, 6.83207146819534, -5.727122127834913]

>  <energy>  (20) 
-777.9731590541485

>  <inter_energy>  (20) 
-889.9644063416379

>  <intra_energy>  (20) 
125.5917101369915

>  <rmsd>  (20) 
2.10452

>  <sdf_rank>  (20) 
0

$$$$

     RDKit          3D

 51 54  0  0  0  0  0  0  0  0999 V2000
  -15.2507    5.5859  -19.6202 N   0  0  0  0  0  0  0  0  0  0  0  0
  -17.7175    4.8166  -16.4974 N   0  0  0  0  0  0  0  0  0  0  0  0
  -16.9607    4.9665  -17.6259 C   0  0  0  0  0  0  0  0  0  0  0  0
  -16.2608    6.4710  -16.0725 C   0  0  0  0  0  0  0  0  0  0  0  0
  -17.2882    5.7347  -15.5649 C   0  0  0  0  0  0  0  0  0  0  0  0
  -14.2904    8.4260  -19.3530 C   0  0  0  0  0  0  0  0  0  0  0  0
  -13.0697    7.2675  -17.5300 C   0  0  1  0  0  0  0  0  0  0  0  0
  -11.0727    6.0315  -16.6245 C   0  0  0  0  0  0  0  0  0  0  0  0
  -11.9718    8.6016  -14.6024 C   0  0  0  0  0  0  0  0  0  0  0  0
  -11.5507    7.8406  -11.4354 C   0  0  0  0  0  0  0  0  0  0  0  0
  -11.3315    5.7198  -10.3690 C   0  0  0  0  0  0  0  0  0  0  0  0
  -12.6758    8.1018  -10.6678 C   0  0  0  0  0  0  0  0  0  0  0  0
  -16.1726    4.6171  -19.6820 C   0  0  0  0  0  0  0  0  0  0  0  0
  -11.6329    6.2409  -15.2313 C   0  0  0  0  0  0  0  0  0  0  0  0
  -13.5610    7.4594  -16.0902 C   0  0  0  0  0  0  0  0  0  0  0  0
  -10.7576    8.5014  -13.6961 C   0  0  0  0  0  0  0  0  0  0  0  0
  -10.8611    6.6440  -11.2817 C   0  0  0  0  0  0  0  0  0  0  0  0
  -12.4504    5.9416   -9.5930 C   0  0  0  0  0  0  0  0  0  0  0  0
  -13.1061    7.1415   -9.7713 C   0  0  0  0  0  0  0  0  0  0  0  0
  -15.1500    6.3129  -18.4815 C   0  0  0  0  0  0  0  0  0  0  0  0
  -16.0267    6.0052  -17.4048 C   0  0  0  0  0  0  0  0  0  0  0  0
  -12.2067    6.0139  -17.6480 C   0  0  0  0  0  0  0  0  0  0  0  0
  -17.0567    4.2541  -18.7601 N   0  0  0  0  0  0  0  0  0  0  0  0
  -14.1964    7.2738  -18.4714 N   0  0  0  0  0  0  0  0  0  0  0  0
  -12.3925    7.4922  -15.2154 N   0  0  0  0  0  0  0  0  0  0  0  0
  -11.1114    8.7796  -12.3198 N   0  0  0  0  0  0  0  0  0  0  0  0
  -12.5072    9.6930  -14.8026 O   0  0  0  0  0  0  0  0  0  0  0  0
  -14.5199    7.4608   -8.8204 Cl  0  0  0  0  0  0  0  0  0  0  0  0
  -10.4921    4.2114  -10.1811 Cl  0  0  0  0  0  0  0  0  0  0  0  0
  -18.4780    4.1343  -16.3669 H   0  0  0  0  0  0  0  0  0  0  0  0
  -15.7138    7.2731  -15.5552 H   0  0  0  0  0  0  0  0  0  0  0  0
  -17.7130    5.8557  -14.5575 H   0  0  0  0  0  0  0  0  0  0  0  0
  -14.3652    9.3434  -18.7506 H   0  0  0  0  0  0  0  0  0  0  0  0
  -13.3934    8.4762  -19.9876 H   0  0  0  0  0  0  0  0  0  0  0  0
  -15.1837    8.3302  -19.9876 H   0  0  0  0  0  0  0  0  0  0  0  0
  -12.4271    8.1181  -17.8010 H   0  0  0  0  0  0  0  0  0  0  0  0
  -10.3784    6.8503  -16.8644 H   0  0  0  0  0  0  0  0  0  0  0  0
  -10.5414    5.0689  -16.6584 H   0  0  0  0  0  0  0  0  0  0  0  0
  -13.2154    9.0549  -10.7703 H   0  0  0  0  0  0  0  0  0  0  0  0
  -16.2017    4.0459  -20.6216 H   0  0  0  0  0  0  0  0  0  0  0  0
  -12.2947    5.4025  -14.9684 H   0  0  0  0  0  0  0  0  0  0  0  0
  -10.8124    6.2906  -14.5003 H   0  0  0  0  0  0  0  0  0  0  0  0
  -14.1155    8.4058  -16.0081 H   0  0  0  0  0  0  0  0  0  0  0  0
  -14.2311    6.6360  -15.8021 H   0  0  0  0  0  0  0  0  0  0  0  0
  -10.3426    7.4849  -13.7622 H   0  0  0  0  0  0  0  0  0  0  0  0
  -10.0146    9.2437  -14.0232 H   0  0  0  0  0  0  0  0  0  0  0  0
   -9.9585    6.4367  -11.8753 H   0  0  0  0  0  0  0  0  0  0  0  0
  -12.8032    5.1956   -8.8657 H   0  0  0  0  0  0  0  0  0  0  0  0
  -12.8343    5.1274  -17.4743 H   0  0  0  0  0  0  0  0  0  0  0  0
  -11.7682    5.9840  -18.6564 H   0  0  0  0  0  0  0  0  0  0  0  0
  -11.0254    9.7507  -11.9876 H   0  0  0  0  0  0  0  0  0  0  0  0
  1 13  2  0
  1 20  1  0
  2  3  1  0
  2  5  1  0
  3 21  1  0
  3 23  2  0
  4  5  2  0
  4 21  1  0
  6 24  1  0
  7 15  1  0
  7 22  1  0
  7 24  1  0
  8 14  1  0
  8 22  1  0
  9 16  1  0
  9 25  1  0
  9 27  2  0
 10 12  2  0
 10 17  1  0
 10 26  1  0
 11 17  2  0
 11 18  1  0
 11 29  1  0
 12 19  1  0
 13 23  1  0
 14 25  1  0
 15 25  1  0
 16 26  1  0
 18 19  2  0
 19 28  1  0
 20 21  2  0
 20 24  1  0
  2 30  1  0
  4 31  1  0
  5 32  1  0
  6 33  1  0
  6 34  1  0
  6 35  1  0
  7 36  1  6
  8 37  1  0
  8 38  1  0
 12 39  1  0
 13 40  1  0
 14 41  1  0
 14 42  1  0
 15 43  1  0
 15 44  1  0
 16 45  1  0
 16 46  1  0
 17 47  1  0
 18 48  1  0
 22 49  1  0
 22 50  1  0
 26 51  1  0
M  END
>  <filename_input>  (21) 
8FLV_ZB9_docked.sdf

>  <pdb_id>  (21) 
8FLV_ZB9

>  <pose_rank>  (21) 
20

>  <num_atoms_heavy>  (21) 
29

>  <num_torsions>  (21) 
5

>  <pose>  (21) 
[-13.069662381746769, 7.26746079368205, -17.529952918521317, -0.7259142249345127, -0.3540840667852228, -1.9397970220168057, -2.9868610211305757, 1.4549295279459111, 1.1525563727311536, 6.501184834579294, -5.317450188070038]

>  <energy>  (21) 
-1333.362696379714

>  <inter_energy>  (21) 
-1373.281918598861

>  <intra_energy>  (21) 
39.642264318768625

>  <rmsd>  (21) 
1.74442

>  <sdf_rank>  (21) 
0

$$$$

     RDKit          3D

 51 54  0  0  0  0  0  0  0  0999 V2000
  -14.9518    5.8995  -19.5505 N   0  0  0  0  0  0  0  0  0  0  0  0
  -13.4445    5.7213  -23.3088 N   0  0  0  0  0  0  0  0  0  0  0  0
  -14.0607    5.6843  -22.0891 C   0  0  0  0  0  0  0  0  0  0  0  0
  -12.2433    7.0424  -21.9480 C   0  0  0  0  0  0  0  0  0  0  0  0
  -12.3436    6.5429  -23.2114 C   0  0  0  0  0  0  0  0  0  0  0  0
  -12.3089    8.3576  -19.1420 C   0  0  0  0  0  0  0  0  0  0  0  0
  -13.6518    7.1349  -17.4517 C   0  0  1  0  0  0  0  0  0  0  0  0
  -15.4443    6.4901  -15.8064 C   0  0  0  0  0  0  0  0  0  0  0  0
  -12.9020    8.1502  -14.2953 C   0  0  0  0  0  0  0  0  0  0  0  0
  -12.2371    7.1219  -10.8264 C   0  0  0  0  0  0  0  0  0  0  0  0
  -12.9103    6.6158   -8.5963 C   0  0  0  0  0  0  0  0  0  0  0  0
  -11.4441    5.9842  -10.8372 C   0  0  0  0  0  0  0  0  0  0  0  0
  -15.5472    5.1765  -20.5070 C   0  0  0  0  0  0  0  0  0  0  0  0
  -15.2082    7.8117  -15.1018 C   0  0  0  0  0  0  0  0  0  0  0  0
  -13.4546    8.4411  -16.6731 C   0  0  0  0  0  0  0  0  0  0  0  0
  -13.3954    7.9085  -12.8797 C   0  0  0  0  0  0  0  0  0  0  0  0
  -12.9882    7.4407   -9.7016 C   0  0  0  0  0  0  0  0  0  0  0  0
  -12.1278    5.4800   -8.5676 C   0  0  0  0  0  0  0  0  0  0  0  0
  -11.3995    5.1946   -9.7032 C   0  0  0  0  0  0  0  0  0  0  0  0
  -13.8246    6.5834  -19.8621 C   0  0  0  0  0  0  0  0  0  0  0  0
  -13.3335    6.5035  -21.1944 C   0  0  0  0  0  0  0  0  0  0  0  0
  -15.0758    6.6111  -17.2841 C   0  0  0  0  0  0  0  0  0  0  0  0
  -15.1746    5.0058  -21.7701 N   0  0  0  0  0  0  0  0  0  0  0  0
  -13.2689    7.3032  -18.8592 N   0  0  0  0  0  0  0  0  0  0  0  0
  -13.8056    8.1920  -15.2779 N   0  0  0  0  0  0  0  0  0  0  0  0
  -12.2952    7.9074  -11.9384 N   0  0  0  0  0  0  0  0  0  0  0  0
  -11.6949    8.2449  -14.5230 O   0  0  0  0  0  0  0  0  0  0  0  0
  -10.3987    3.7793   -9.7102 Cl  0  0  0  0  0  0  0  0  0  0  0  0
  -13.8272    7.0129   -7.1762 Cl  0  0  0  0  0  0  0  0  0  0  0  0
  -13.7510    5.2207  -24.1552 H   0  0  0  0  0  0  0  0  0  0  0  0
  -11.4696    7.7306  -21.5770 H   0  0  0  0  0  0  0  0  0  0  0  0
  -11.6469    6.7636  -24.0336 H   0  0  0  0  0  0  0  0  0  0  0  0
  -11.9309    8.7728  -18.1961 H   0  0  0  0  0  0  0  0  0  0  0  0
  -11.4706    7.9443  -19.7220 H   0  0  0  0  0  0  0  0  0  0  0  0
  -12.7988    9.1536  -19.7220 H   0  0  0  0  0  0  0  0  0  0  0  0
  -12.9835    6.3685  -17.0322 H   0  0  0  0  0  0  0  0  0  0  0  0
  -14.8229    5.7122  -15.3388 H   0  0  0  0  0  0  0  0  0  0  0  0
  -16.5074    6.2209  -15.7209 H   0  0  0  0  0  0  0  0  0  0  0  0
  -10.8618    5.7151  -11.7308 H   0  0  0  0  0  0  0  0  0  0  0  0
  -16.4676    4.6543  -20.2067 H   0  0  0  0  0  0  0  0  0  0  0  0
  -15.8589    8.5847  -15.5366 H   0  0  0  0  0  0  0  0  0  0  0  0
  -15.4385    7.7124  -14.0308 H   0  0  0  0  0  0  0  0  0  0  0  0
  -12.4048    8.7621  -16.7423 H   0  0  0  0  0  0  0  0  0  0  0  0
  -14.0908    9.2351  -17.0913 H   0  0  0  0  0  0  0  0  0  0  0  0
  -14.1030    8.7046  -12.6048 H   0  0  0  0  0  0  0  0  0  0  0  0
  -13.8875    6.9253  -12.8438 H   0  0  0  0  0  0  0  0  0  0  0  0
  -13.6321    8.3325   -9.6916 H   0  0  0  0  0  0  0  0  0  0  0  0
  -12.0868    4.8318   -7.6798 H   0  0  0  0  0  0  0  0  0  0  0  0
  -15.7745    7.3056  -17.7734 H   0  0  0  0  0  0  0  0  0  0  0  0
  -15.1386    5.6137  -17.7437 H   0  0  0  0  0  0  0  0  0  0  0  0
  -11.5047    8.5420  -12.1213 H   0  0  0  0  0  0  0  0  0  0  0  0
  1 13  2  0
  1 20  1  0
  2  3  1  0
  2  5  1  0
  3 21  1  0
  3 23  2  0
  4  5  2  0
  4 21  1  0
  6 24  1  0
  7 15  1  0
  7 22  1  0
  7 24  1  0
  8 14  1  0
  8 22  1  0
  9 16  1  0
  9 25  1  0
  9 27  2  0
 10 12  2  0
 10 17  1  0
 10 26  1  0
 11 17  2  0
 11 18  1  0
 11 29  1  0
 12 19  1  0
 13 23  1  0
 14 25  1  0
 15 25  1  0
 16 26  1  0
 18 19  2  0
 19 28  1  0
 20 21  2  0
 20 24  1  0
  2 30  1  0
  4 31  1  0
  5 32  1  0
  6 33  1  0
  6 34  1  0
  6 35  1  0
  7 36  1  1
  8 37  1  0
  8 38  1  0
 12 39  1  0
 13 40  1  0
 14 41  1  0
 14 42  1  0
 15 43  1  0
 15 44  1  0
 16 45  1  0
 16 46  1  0
 17 47  1  0
 18 48  1  0
 22 49  1  0
 22 50  1  0
 26 51  1  0
M  END
>  <filename_input>  (22) 
8FLV_ZB9_docked.sdf

>  <pdb_id>  (22) 
8FLV_ZB9

>  <pose_rank>  (22) 
21

>  <num_atoms_heavy>  (22) 
29

>  <num_torsions>  (22) 
5

>  <pose>  (22) 
[-13.651820615617039, 7.134942666871964, -17.451650888486277, 0.3083239257586384, 0.4425583822584561, 2.2478047842861604, 14.368777079946149, 35.169086293689375, 18.881022210348178, -16.42509661386454, 5.059483486777802]

>  <energy>  (22) 
-711.3743664346656

>  <inter_energy>  (22) 
-759.8761615149513

>  <intra_energy>  (22) 
68.832090554257

>  <rmsd>  (22) 
3.37744

>  <sdf_rank>  (22) 
0

$$$$

     RDKit          3D

 51 54  0  0  0  0  0  0  0  0999 V2000
  -13.8265    7.3518  -18.9899 N   0  0  0  0  0  0  0  0  0  0  0  0
  -16.5050    5.3499  -16.6994 N   0  0  0  0  0  0  0  0  0  0  0  0
  -15.6427    5.9322  -17.5859 C   0  0  0  0  0  0  0  0  0  0  0  0
  -15.4742    7.0075  -15.5904 C   0  0  0  0  0  0  0  0  0  0  0  0
  -16.3980    6.0109  -15.4959 C   0  0  0  0  0  0  0  0  0  0  0  0
  -13.7630   10.1360  -17.4354 C   0  0  0  0  0  0  0  0  0  0  0  0
  -12.0391    8.6053  -16.5183 C   0  0  1  0  0  0  0  0  0  0  0  0
   -9.7416    7.5803  -16.4401 C   0  0  0  0  0  0  0  0  0  0  0  0
  -10.6993    8.7301  -13.3966 C   0  0  0  0  0  0  0  0  0  0  0  0
  -10.3644    7.3416  -10.7930 C   0  0  0  0  0  0  0  0  0  0  0  0
  -10.9865    5.0842  -10.3457 C   0  0  0  0  0  0  0  0  0  0  0  0
  -11.5008    7.7784  -10.1289 C   0  0  0  0  0  0  0  0  0  0  0  0
  -14.5230    6.3167  -19.4752 C   0  0  0  0  0  0  0  0  0  0  0  0
  -10.0857    7.0265  -15.0713 C   0  0  0  0  0  0  0  0  0  0  0  0
  -12.3055    8.0315  -15.1216 C   0  0  0  0  0  0  0  0  0  0  0  0
   -9.3500    8.5179  -12.7330 C   0  0  0  0  0  0  0  0  0  0  0  0
  -10.0934    5.9826  -10.8967 C   0  0  0  0  0  0  0  0  0  0  0  0
  -12.1302    5.4809   -9.6839 C   0  0  0  0  0  0  0  0  0  0  0  0
  -12.3635    6.8372   -9.5985 C   0  0  0  0  0  0  0  0  0  0  0  0
  -14.0297    7.7233  -17.7030 C   0  0  0  0  0  0  0  0  0  0  0  0
  -14.9703    6.9891  -16.9293 C   0  0  0  0  0  0  0  0  0  0  0  0
  -11.0131    7.7592  -17.2678 C   0  0  0  0  0  0  0  0  0  0  0  0
  -15.4385    5.5739  -18.8639 N   0  0  0  0  0  0  0  0  0  0  0  0
  -13.2937    8.7708  -17.2629 N   0  0  0  0  0  0  0  0  0  0  0  0
  -11.0280    7.9385  -14.4208 N   0  0  0  0  0  0  0  0  0  0  0  0
   -9.5020    8.2574  -11.3168 N   0  0  0  0  0  0  0  0  0  0  0  0
  -11.4337    9.6478  -13.0276 O   0  0  0  0  0  0  0  0  0  0  0  0
  -13.7912    7.3811   -8.7796 Cl  0  0  0  0  0  0  0  0  0  0  0  0
  -10.6716    3.3823  -10.4856 Cl  0  0  0  0  0  0  0  0  0  0  0  0
  -17.1278    4.5537  -16.8974 H   0  0  0  0  0  0  0  0  0  0  0  0
  -15.1725    7.6969  -14.7882 H   0  0  0  0  0  0  0  0  0  0  0  0
  -16.9743    5.7693  -14.5906 H   0  0  0  0  0  0  0  0  0  0  0  0
  -13.9213   10.5966  -16.4491 H   0  0  0  0  0  0  0  0  0  0  0  0
  -13.0120   10.7140  -17.9937 H   0  0  0  0  0  0  0  0  0  0  0  0
  -14.7107   10.1301  -17.9937 H   0  0  0  0  0  0  0  0  0  0  0  0
  -11.6010    9.6087  -16.4111 H   0  0  0  0  0  0  0  0  0  0  0  0
   -9.2428    8.5538  -16.3241 H   0  0  0  0  0  0  0  0  0  0  0  0
   -9.0719    6.8763  -16.9558 H   0  0  0  0  0  0  0  0  0  0  0  0
  -11.7118    8.8530  -10.0261 H   0  0  0  0  0  0  0  0  0  0  0  0
  -14.3085    6.0452  -20.5194 H   0  0  0  0  0  0  0  0  0  0  0  0
  -10.5458    6.0332  -15.1787 H   0  0  0  0  0  0  0  0  0  0  0  0
   -9.1734    6.9334  -14.4639 H   0  0  0  0  0  0  0  0  0  0  0  0
  -12.9870    8.6951  -14.5691 H   0  0  0  0  0  0  0  0  0  0  0  0
  -12.7720    7.0383  -15.1991 H   0  0  0  0  0  0  0  0  0  0  0  0
   -8.8485    7.6598  -13.2045 H   0  0  0  0  0  0  0  0  0  0  0  0
   -8.7509    9.4318  -12.8584 H   0  0  0  0  0  0  0  0  0  0  0  0
   -9.1857    5.6292  -11.4076 H   0  0  0  0  0  0  0  0  0  0  0  0
  -12.8240    4.7489   -9.2447 H   0  0  0  0  0  0  0  0  0  0  0  0
  -11.4472    6.7708  -17.4787 H   0  0  0  0  0  0  0  0  0  0  0  0
  -10.7521    8.2733  -18.2046 H   0  0  0  0  0  0  0  0  0  0  0  0
   -8.9203    8.8000  -10.6625 H   0  0  0  0  0  0  0  0  0  0  0  0
  1 13  2  0
  1 20  1  0
  2  3  1  0
  2  5  1  0
  3 21  1  0
  3 23  2  0
  4  5  2  0
  4 21  1  0
  6 24  1  0
  7 15  1  0
  7 22  1  0
  7 24  1  0
  8 14  1  0
  8 22  1  0
  9 16  1  0
  9 25  1  0
  9 27  2  0
 10 12  2  0
 10 17  1  0
 10 26  1  0
 11 17  2  0
 11 18  1  0
 11 29  1  0
 12 19  1  0
 13 23  1  0
 14 25  1  0
 15 25  1  0
 16 26  1  0
 18 19  2  0
 19 28  1  0
 20 21  2  0
 20 24  1  0
  2 30  1  0
  4 31  1  0
  5 32  1  0
  6 33  1  0
  6 34  1  0
  6 35  1  0
  7 36  1  1
  8 37  1  0
  8 38  1  0
 12 39  1  0
 13 40  1  0
 14 41  1  0
 14 42  1  0
 15 43  1  0
 15 44  1  0
 16 45  1  0
 16 46  1  0
 17 47  1  0
 18 48  1  0
 22 49  1  0
 22 50  1  0
 26 51  1  0
M  END
>  <filename_input>  (23) 
8FLV_ZB9_docked.sdf

>  <pdb_id>  (23) 
8FLV_ZB9

>  <pose_rank>  (23) 
22

>  <num_atoms_heavy>  (23) 
29

>  <num_torsions>  (23) 
5

>  <pose>  (23) 
[-12.039057037246147, 8.605339976637701, -16.518276294011297, -0.4764111445973641, 0.10733005308064641, -1.6839668208638345, -3.044799690018079, 1.8331960595891805, 1.0150919386077628, 5.826284548106714, -4.892435605036819]

>  <energy>  (23) 
-763.4739988384681

>  <inter_energy>  (23) 
-776.2544053704559

>  <intra_energy>  (23) 
20.02482209434477

>  <rmsd>  (23) 
2.46577

>  <sdf_rank>  (23) 
0

$$$$

     RDKit          3D

 51 54  0  0  0  0  0  0  0  0999 V2000
  -15.4287    5.6626  -19.7695 N   0  0  0  0  0  0  0  0  0  0  0  0
  -18.0761    5.1815  -16.7383 N   0  0  0  0  0  0  0  0  0  0  0  0
  -17.2699    5.2465  -17.8403 C   0  0  0  0  0  0  0  0  0  0  0  0
  -16.4252    6.6176  -16.2361 C   0  0  0  0  0  0  0  0  0  0  0  0
  -17.5580    6.0180  -15.7747 C   0  0  0  0  0  0  0  0  0  0  0  0
  -13.0930    7.0290  -19.4920 C   0  0  0  0  0  0  0  0  0  0  0  0
  -14.1081    8.3032  -17.6206 C   0  0  1  0  0  0  0  0  0  0  0  0
  -14.7382   10.6866  -17.1130 C   0  0  0  0  0  0  0  0  0  0  0  0
  -12.2283    9.6046  -15.1050 C   0  0  0  0  0  0  0  0  0  0  0  0
  -10.4994   12.3042  -13.2118 C   0  0  0  0  0  0  0  0  0  0  0  0
   -9.0646   14.0430  -12.4366 C   0  0  0  0  0  0  0  0  0  0  0  0
  -11.0939   12.2471  -11.9602 C   0  0  0  0  0  0  0  0  0  0  0  0
  -16.4697    4.8279  -19.8788 C   0  0  0  0  0  0  0  0  0  0  0  0
  -13.2694   10.9749  -16.8719 C   0  0  0  0  0  0  0  0  0  0  0  0
  -12.6452    8.6656  -17.3384 C   0  0  0  0  0  0  0  0  0  0  0  0
  -12.2340   10.8240  -14.2001 C   0  0  0  0  0  0  0  0  0  0  0  0
   -9.4812   13.2163  -13.4619 C   0  0  0  0  0  0  0  0  0  0  0  0
   -9.6273   14.0103  -11.1774 C   0  0  0  0  0  0  0  0  0  0  0  0
  -10.6369   13.0946  -10.9682 C   0  0  0  0  0  0  0  0  0  0  0  0
  -15.2683    6.3507  -18.6136 C   0  0  0  0  0  0  0  0  0  0  0  0
  -16.2127    6.1463  -17.5701 C   0  0  0  0  0  0  0  0  0  0  0  0
  -14.8901    9.5257  -18.0943 C   0  0  0  0  0  0  0  0  0  0  0  0
  -17.4239    4.5722  -18.9913 N   0  0  0  0  0  0  0  0  0  0  0  0
  -14.1954    7.1742  -18.5553 N   0  0  0  0  0  0  0  0  0  0  0  0
  -12.6298    9.7577  -16.3695 N   0  0  0  0  0  0  0  0  0  0  0  0
  -10.9424   11.4786  -14.2013 N   0  0  0  0  0  0  0  0  0  0  0  0
  -11.9156    8.5010  -14.6555 O   0  0  0  0  0  0  0  0  0  0  0  0
  -11.3699   13.0154   -9.3994 Cl  0  0  0  0  0  0  0  0  0  0  0  0
   -7.7792   15.1734  -12.7285 Cl  0  0  0  0  0  0  0  0  0  0  0  0
  -18.9251    4.6058  -16.6446 H   0  0  0  0  0  0  0  0  0  0  0  0
  -15.7927    7.3301  -15.6863 H   0  0  0  0  0  0  0  0  0  0  0  0
  -17.9951    6.1786  -14.7781 H   0  0  0  0  0  0  0  0  0  0  0  0
  -12.1526    6.9052  -18.9350 H   0  0  0  0  0  0  0  0  0  0  0  0
  -13.2635    6.1456  -20.1248 H   0  0  0  0  0  0  0  0  0  0  0  0
  -13.0290    7.9265  -20.1248 H   0  0  0  0  0  0  0  0  0  0  0  0
  -14.5784    7.9734  -16.6825 H   0  0  0  0  0  0  0  0  0  0  0  0
  -15.2187   10.4225  -16.1594 H   0  0  0  0  0  0  0  0  0  0  0  0
  -15.2163   11.5819  -17.5371 H   0  0  0  0  0  0  0  0  0  0  0  0
  -11.9134   11.5410  -11.7606 H   0  0  0  0  0  0  0  0  0  0  0  0
  -16.5447    4.2812  -20.8304 H   0  0  0  0  0  0  0  0  0  0  0  0
  -12.7926   11.2819  -17.8144 H   0  0  0  0  0  0  0  0  0  0  0  0
  -13.1619   11.7862  -16.1368 H   0  0  0  0  0  0  0  0  0  0  0  0
  -12.1173    7.7931  -16.9259 H   0  0  0  0  0  0  0  0  0  0  0  0
  -12.1413    8.9716  -18.2671 H   0  0  0  0  0  0  0  0  0  0  0  0
  -12.9963   11.5325  -14.5564 H   0  0  0  0  0  0  0  0  0  0  0  0
  -12.4598   10.4974  -13.1743 H   0  0  0  0  0  0  0  0  0  0  0  0
   -9.0162   13.2787  -14.4568 H   0  0  0  0  0  0  0  0  0  0  0  0
   -9.2863   14.6836  -10.3772 H   0  0  0  0  0  0  0  0  0  0  0  0
  -14.5113    9.8355  -19.0795 H   0  0  0  0  0  0  0  0  0  0  0  0
  -15.9550    9.2575  -18.1578 H   0  0  0  0  0  0  0  0  0  0  0  0
  -10.3176   11.3090  -15.0024 H   0  0  0  0  0  0  0  0  0  0  0  0
  1 13  2  0
  1 20  1  0
  2  3  1  0
  2  5  1  0
  3 21  1  0
  3 23  2  0
  4  5  2  0
  4 21  1  0
  6 24  1  0
  7 15  1  0
  7 22  1  0
  7 24  1  0
  8 14  1  0
  8 22  1  0
  9 16  1  0
  9 25  1  0
  9 27  2  0
 10 12  2  0
 10 17  1  0
 10 26  1  0
 11 17  2  0
 11 18  1  0
 11 29  1  0
 12 19  1  0
 13 23  1  0
 14 25  1  0
 15 25  1  0
 16 26  1  0
 18 19  2  0
 19 28  1  0
 20 21  2  0
 20 24  1  0
  2 30  1  0
  4 31  1  0
  5 32  1  0
  6 33  1  0
  6 34  1  0
  6 35  1  0
  7 36  1  1
  8 37  1  0
  8 38  1  0
 12 39  1  0
 13 40  1  0
 14 41  1  0
 14 42  1  0
 15 43  1  0
 15 44  1  0
 16 45  1  0
 16 46  1  0
 17 47  1  0
 18 48  1  0
 22 49  1  0
 22 50  1  0
 26 51  1  0
M  END
>  <filename_input>  (24) 
8FLV_ZB9_docked.sdf

>  <pdb_id>  (24) 
8FLV_ZB9

>  <pose_rank>  (24) 
23

>  <num_atoms_heavy>  (24) 
29

>  <num_torsions>  (24) 
5

>  <pose>  (24) 
[-14.108105395651473, 8.303235482847185, -17.62063686067572, -0.06129374550068402, 0.606370361985556, 0.7223812887196188, 7.1589675447494265, 6.2830396914776365, 7.817995742525382, -4.077550534315147, -2.6680683633965248]

>  <energy>  (24) 
-1092.6478940476159

>  <inter_energy>  (24) 
-1091.7431819505905

>  <intra_energy>  (24) 
12.441306979063524

>  <rmsd>  (24) 
4.48782

>  <sdf_rank>  (24) 
0

$$$$

     RDKit          3D

 51 54  0  0  0  0  0  0  0  0999 V2000
  -16.6446    5.6620  -17.2335 N   0  0  0  0  0  0  0  0  0  0  0  0
  -13.8353    6.6969  -19.9658 N   0  0  0  0  0  0  0  0  0  0  0  0
  -14.8468    6.2640  -19.1547 C   0  0  0  0  0  0  0  0  0  0  0  0
  -13.4711    7.6133  -17.9490 C   0  0  0  0  0  0  0  0  0  0  0  0
  -13.0062    7.5098  -19.2252 C   0  0  0  0  0  0  0  0  0  0  0  0
  -16.1652    6.0546  -14.5329 C   0  0  0  0  0  0  0  0  0  0  0  0
  -14.9631    8.1326  -15.1597 C   0  0  1  0  0  0  0  0  0  0  0  0
  -14.3018   10.4868  -15.7559 C   0  0  0  0  0  0  0  0  0  0  0  0
  -12.6983    9.4079  -12.9690 C   0  0  0  0  0  0  0  0  0  0  0  0
   -9.8651    9.9019  -13.3259 C   0  0  0  0  0  0  0  0  0  0  0  0
   -8.0087    8.8805  -14.4184 C   0  0  0  0  0  0  0  0  0  0  0  0
   -9.8574    8.8871  -12.3808 C   0  0  0  0  0  0  0  0  0  0  0  0
  -16.7082    5.2272  -18.4980 C   0  0  0  0  0  0  0  0  0  0  0  0
  -12.8909   10.1536  -15.3121 C   0  0  0  0  0  0  0  0  0  0  0  0
  -13.5200    7.8776  -14.7087 C   0  0  0  0  0  0  0  0  0  0  0  0
  -12.0907   10.7559  -12.6233 C   0  0  0  0  0  0  0  0  0  0  0  0
   -8.9273    9.9101  -14.3514 C   0  0  0  0  0  0  0  0  0  0  0  0
   -7.9747    7.8510  -13.5007 C   0  0  0  0  0  0  0  0  0  0  0  0
   -8.9187    7.8788  -12.4959 C   0  0  0  0  0  0  0  0  0  0  0  0
  -15.6154    6.4674  -16.8762 C   0  0  0  0  0  0  0  0  0  0  0  0
  -14.6562    6.8160  -17.8666 C   0  0  0  0  0  0  0  0  0  0  0  0
  -15.0151    9.2212  -16.2285 C   0  0  0  0  0  0  0  0  0  0  0  0
  -15.8675    5.4622  -19.4988 N   0  0  0  0  0  0  0  0  0  0  0  0
  -15.6049    6.8832  -15.5879 N   0  0  0  0  0  0  0  0  0  0  0  0
  -12.9592    9.1461  -14.2523 N   0  0  0  0  0  0  0  0  0  0  0  0
  -10.7812   10.9054  -13.2228 N   0  0  0  0  0  0  0  0  0  0  0  0
  -12.9905    8.6124  -12.0748 O   0  0  0  0  0  0  0  0  0  0  0  0
   -8.9162    6.6025  -11.3230 Cl  0  0  0  0  0  0  0  0  0  0  0  0
   -6.8440    8.8664  -15.7063 Cl  0  0  0  0  0  0  0  0  0  0  0  0
  -13.7140    6.4566  -20.9600 H   0  0  0  0  0  0  0  0  0  0  0  0
  -13.0202    8.1998  -17.1349 H   0  0  0  0  0  0  0  0  0  0  0  0
  -12.1008    8.0033  -19.6082 H   0  0  0  0  0  0  0  0  0  0  0  0
  -15.8849    6.4690  -13.5533 H   0  0  0  0  0  0  0  0  0  0  0  0
  -17.2613    6.0371  -14.6236 H   0  0  0  0  0  0  0  0  0  0  0  0
  -15.7733    5.0308  -14.6236 H   0  0  0  0  0  0  0  0  0  0  0  0
  -15.5413    8.5064  -14.3019 H   0  0  0  0  0  0  0  0  0  0  0  0
  -14.8555   10.9230  -14.9115 H   0  0  0  0  0  0  0  0  0  0  0  0
  -14.2578   11.2072  -16.5861 H   0  0  0  0  0  0  0  0  0  0  0  0
  -10.5844    8.8845  -11.5552 H   0  0  0  0  0  0  0  0  0  0  0  0
  -17.5718    4.5904  -18.7404 H   0  0  0  0  0  0  0  0  0  0  0  0
  -12.3187    9.7570  -16.1638 H   0  0  0  0  0  0  0  0  0  0  0  0
  -12.3915   11.0592  -14.9374 H   0  0  0  0  0  0  0  0  0  0  0  0
  -13.5095    7.1473  -13.8862 H   0  0  0  0  0  0  0  0  0  0  0  0
  -12.9250    7.4742  -15.5413 H   0  0  0  0  0  0  0  0  0  0  0  0
  -12.7499   11.5536  -12.9962 H   0  0  0  0  0  0  0  0  0  0  0  0
  -11.9847   10.8220  -11.5304 H   0  0  0  0  0  0  0  0  0  0  0  0
   -8.9167   10.7204  -15.0952 H   0  0  0  0  0  0  0  0  0  0  0  0
   -7.2290    7.0451  -13.5675 H   0  0  0  0  0  0  0  0  0  0  0  0
  -14.5257    8.8523  -17.1419 H   0  0  0  0  0  0  0  0  0  0  0  0
  -16.0687    9.4665  -16.4280 H   0  0  0  0  0  0  0  0  0  0  0  0
  -10.5254   11.8308  -13.5958 H   0  0  0  0  0  0  0  0  0  0  0  0
  1 13  2  0
  1 20  1  0
  2  3  1  0
  2  5  1  0
  3 21  1  0
  3 23  2  0
  4  5  2  0
  4 21  1  0
  6 24  1  0
  7 15  1  0
  7 22  1  0
  7 24  1  0
  8 14  1  0
  8 22  1  0
  9 16  1  0
  9 25  1  0
  9 27  2  0
 10 12  2  0
 10 17  1  0
 10 26  1  0
 11 17  2  0
 11 18  1  0
 11 29  1  0
 12 19  1  0
 13 23  1  0
 14 25  1  0
 15 25  1  0
 16 26  1  0
 18 19  2  0
 19 28  1  0
 20 21  2  0
 20 24  1  0
  2 30  1  0
  4 31  1  0
  5 32  1  0
  6 33  1  0
  6 34  1  0
  6 35  1  0
  7 36  1  1
  8 37  1  0
  8 38  1  0
 12 39  1  0
 13 40  1  0
 14 41  1  0
 14 42  1  0
 15 43  1  0
 15 44  1  0
 16 45  1  0
 16 46  1  0
 17 47  1  0
 18 48  1  0
 22 49  1  0
 22 50  1  0
 26 51  1  0
M  END
>  <filename_input>  (25) 
8FLV_ZB9_docked.sdf

>  <pdb_id>  (25) 
8FLV_ZB9

>  <pose_rank>  (25) 
24

>  <num_atoms_heavy>  (25) 
29

>  <num_torsions>  (25) 
5

>  <pose>  (25) 
[-14.963149372363308, 8.132579428755493, -15.159741671160536, -0.348108835029041, 0.6178053209659179, 0.06939805649620363, -9.748821334262118, -5.449254998033032, 2.0574721394101627, 4.295598058517381, 2.7672203562027766]

>  <energy>  (25) 
-448.4307177233985

>  <inter_energy>  (25) 
-559.0737916214401

>  <intra_energy>  (25) 
119.350874032059

>  <rmsd>  (25) 
4.17952

>  <sdf_rank>  (25) 
0

$$$$

     RDKit          3D

 51 54  0  0  0  0  0  0  0  0999 V2000
  -15.3390    5.5960  -19.7830 N   0  0  0  0  0  0  0  0  0  0  0  0
  -17.9990    4.9170  -16.8010 N   0  0  0  0  0  0  0  0  0  0  0  0
  -17.2000    5.0740  -17.8990 C   0  0  0  0  0  0  0  0  0  0  0  0
  -16.1880    6.0520  -16.1140 C   0  0  0  0  0  0  0  0  0  0  0  0
  -17.3790    5.5160  -15.7270 C   0  0  0  0  0  0  0  0  0  0  0  0
  -12.8580    6.6230  -19.3480 C   0  0  0  0  0  0  0  0  0  0  0  0
  -13.7020    7.6720  -17.2640 C   0  0  1  0  0  0  0  0  0  0  0  0
  -12.9110    9.9520  -16.5490 C   0  0  0  0  0  0  0  0  0  0  0  0
  -13.1740    7.8380  -13.9100 C   0  0  0  0  0  0  0  0  0  0  0  0
  -13.1760    7.6130  -10.7400 C   0  0  0  0  0  0  0  0  0  0  0  0
  -11.6830    5.8520  -10.1460 C   0  0  0  0  0  0  0  0  0  0  0  0
  -13.8070    7.4820   -9.5120 C   0  0  0  0  0  0  0  0  0  0  0  0
  -16.4710    4.9150  -20.0000 C   0  0  0  0  0  0  0  0  0  0  0  0
  -12.0050    9.2710  -15.5420 C   0  0  0  0  0  0  0  0  0  0  0  0
  -12.7770    7.0570  -16.2070 C   0  0  0  0  0  0  0  0  0  0  0  0
  -12.9320    8.9000  -12.8520 C   0  0  0  0  0  0  0  0  0  0  0  0
  -12.0960    6.8000  -11.0620 C   0  0  0  0  0  0  0  0  0  0  0  0
  -12.2900    5.6880   -8.9180 C   0  0  0  0  0  0  0  0  0  0  0  0
  -13.3560    6.5150   -8.6330 C   0  0  0  0  0  0  0  0  0  0  0  0
  -15.0900    6.0580  -18.5340 C   0  0  0  0  0  0  0  0  0  0  0  0
  -16.0430    5.7900  -17.5130 C   0  0  0  0  0  0  0  0  0  0  0  0
  -13.1690    9.0230  -17.7340 C   0  0  0  0  0  0  0  0  0  0  0  0
  -17.4410    4.6240  -19.1410 N   0  0  0  0  0  0  0  0  0  0  0  0
  -13.9280    6.7330  -18.3700 N   0  0  0  0  0  0  0  0  0  0  0  0
  -12.6340    8.0190  -15.1180 N   0  0  0  0  0  0  0  0  0  0  0  0
  -13.6060    8.5650  -11.6150 N   0  0  0  0  0  0  0  0  0  0  0  0
  -13.8980    6.8720  -13.6640 O   0  0  0  0  0  0  0  0  0  0  0  0
  -14.1520    6.3410   -7.1030 Cl  0  0  0  0  0  0  0  0  0  0  0  0
  -10.3480    4.8150  -10.5430 Cl  0  0  0  0  0  0  0  0  0  0  0  0
  -18.9084    4.4338  -16.7804 H   0  0  0  0  0  0  0  0  0  0  0  0
  -15.4723    6.5859  -15.4716 H   0  0  0  0  0  0  0  0  0  0  0  0
  -17.7861    5.5558  -14.7059 H   0  0  0  0  0  0  0  0  0  0  0  0
  -11.8941    6.5239  -18.8273 H   0  0  0  0  0  0  0  0  0  0  0  0
  -13.0270    5.7375  -19.9783 H   0  0  0  0  0  0  0  0  0  0  0  0
  -12.8433    7.5244  -19.9783 H   0  0  0  0  0  0  0  0  0  0  0  0
  -14.6840    7.8633  -16.8068 H   0  0  0  0  0  0  0  0  0  0  0  0
  -13.8678   10.2018  -16.0672 H   0  0  0  0  0  0  0  0  0  0  0  0
  -12.4234   10.8696  -16.9098 H   0  0  0  0  0  0  0  0  0  0  0  0
  -14.6502    8.1350   -9.2426 H   0  0  0  0  0  0  0  0  0  0  0  0
  -16.6171    4.5476  -21.0265 H   0  0  0  0  0  0  0  0  0  0  0  0
  -11.0305    9.0575  -16.0055 H   0  0  0  0  0  0  0  0  0  0  0  0
  -11.8505    9.9267  -14.6724 H   0  0  0  0  0  0  0  0  0  0  0  0
  -13.2154    6.1232  -15.8251 H   0  0  0  0  0  0  0  0  0  0  0  0
  -11.7947    6.8276  -16.6457 H   0  0  0  0  0  0  0  0  0  0  0  0
  -11.8513    8.9790  -12.6626 H   0  0  0  0  0  0  0  0  0  0  0  0
  -13.3305    9.8572  -13.2195 H   0  0  0  0  0  0  0  0  0  0  0  0
  -11.5801    6.9092  -12.0274 H   0  0  0  0  0  0  0  0  0  0  0  0
  -11.9398    4.9324   -8.1994 H   0  0  0  0  0  0  0  0  0  0  0  0
  -12.2274    8.8677  -18.2810 H   0  0  0  0  0  0  0  0  0  0  0  0
  -13.9217    9.4888  -18.3871 H   0  0  0  0  0  0  0  0  0  0  0  0
  -14.4668    9.0800  -11.3812 H   0  0  0  0  0  0  0  0  0  0  0  0
  1 13  2  0
  1 20  1  0
  2  3  1  0
  2  5  1  0
  3 21  1  0
  3 23  2  0
  4  5  2  0
  4 21  1  0
  6 24  1  0
  7 15  1  0
  7 22  1  0
  7 24  1  0
  8 14  1  0
  8 22  1  0
  9 16  1  0
  9 25  1  0
  9 27  2  0
 10 12  2  0
 10 17  1  0
 10 26  1  0
 11 17  2  0
 11 18  1  0
 11 29  1  0
 12 19  1  0
 13 23  1  0
 14 25  1  0
 15 25  1  0
 16 26  1  0
 18 19  2  0
 19 28  1  0
 20 21  2  0
 20 24  1  0
  2 30  1  0
  4 31  1  0
  5 32  1  0
  6 33  1  0
  6 34  1  0
  6 35  1  0
  7 36  1  1
  8 37  1  0
  8 38  1  0
 12 39  1  0
 13 40  1  0
 14 41  1  0
 14 42  1  0
 15 43  1  0
 15 44  1  0
 16 45  1  0
 16 46  1  0
 17 47  1  0
 18 48  1  0
 22 49  1  0
 22 50  1  0
 26 51  1  0
M  END
>  <filename_input>  (26) 
8FLV_ZB9_docked.sdf

>  <pdb_id>  (26) 
8FLV_ZB9

>  <pose_rank>  (26) 
25

>  <num_atoms_heavy>  (26) 
29

>  <num_torsions>  (26) 
5

>  <pose>  (26) 
[-13.702, 7.672, -17.264, 1e-06, 1e-06, 1e-06, 0.0, 0.0, 0.0, 0.0, 0.0]

>  <energy>  (26) 
-1625.0915500136243

>  <inter_energy>  (26) 
-1670.9620987811509

>  <intra_energy>  (26) 
37.27456061069302

>  <rmsd>  (26) 
0.0

>  <sdf_rank>  (26) 
0

$$$$
