
     RDKit          3D

 28 29  0  0  0  0  0  0  0  0999 V2000
   24.9580   -7.7891  -25.1280 O   0  0  0  0  0  0  0  0  0  0  0  0
   23.8150   -2.4202  -25.7488 O   0  0  0  0  0  0  0  0  0  0  0  0
   21.4948   -2.0201  -22.6946 C   0  0  0  0  0  0  0  0  0  0  0  0
   20.1696   -2.1946  -22.3415 C   0  0  0  0  0  0  0  0  0  0  0  0
   19.2744   -2.7328  -23.2372 C   0  0  0  0  0  0  0  0  0  0  0  0
   19.6940   -3.0975  -24.4941 C   0  0  0  0  0  0  0  0  0  0  0  0
   21.0168   -2.9493  -24.8656 C   0  0  0  0  0  0  0  0  0  0  0  0
   24.5843   -4.0810  -22.4281 C   0  0  0  0  0  0  0  0  0  0  0  0
   24.8719   -5.4037  -22.2933 C   0  0  0  0  0  0  0  0  0  0  0  0
   24.6546   -6.0292  -23.5719 C   0  0  0  0  0  0  0  0  0  0  0  0
   24.8531   -7.4391  -23.9257 C   0  0  0  0  0  0  0  0  0  0  0  0
   25.0578   -8.4321  -22.8294 C   0  0  0  0  0  0  0  0  0  0  0  0
   24.2645   -5.0275  -24.4320 C   0  0  0  0  0  0  0  0  0  0  0  0
   23.6225   -2.3763  -24.3395 S   0  0  2  0  0  0  0  0  0  0  0  0
   24.2289   -1.3497  -23.5446 O   0  0  0  0  0  0  0  0  0  0  0  0
   24.2045   -3.8408  -23.7387 N   0  0  0  0  0  0  0  0  0  0  0  0
   21.9121   -2.4186  -23.9548 C   0  0  0  0  0  0  0  0  0  0  0  0
   22.2071   -1.5718  -21.9863 H   0  0  0  0  0  0  0  0  0  0  0  0
   19.8285   -1.9013  -21.3377 H   0  0  0  0  0  0  0  0  0  0  0  0
   18.2224   -2.8712  -22.9472 H   0  0  0  0  0  0  0  0  0  0  0  0
   18.9699   -3.5114  -25.2113 H   0  0  0  0  0  0  0  0  0  0  0  0
   21.3522   -3.2487  -25.8695 H   0  0  0  0  0  0  0  0  0  0  0  0
   24.6436   -3.3271  -21.6292 H   0  0  0  0  0  0  0  0  0  0  0  0
   25.2093   -5.9047  -21.3739 H   0  0  0  0  0  0  0  0  0  0  0  0
   24.9543   -7.9301  -21.8561 H   0  0  0  0  0  0  0  0  0  0  0  0
   24.3053   -9.2301  -22.9123 H   0  0  0  0  0  0  0  0  0  0  0  0
   26.0646   -8.8674  -22.9123 H   0  0  0  0  0  0  0  0  0  0  0  0
   24.0376   -5.1554  -25.5007 H   0  0  0  0  0  0  0  0  0  0  0  0
  1 11  2  0
  2 14  2  0
  3  4  2  0
  3 17  1  0
  4  5  1  0
  5  6  2  0
  6  7  1  0
  7 17  2  0
  8  9  2  0
  8 16  1  0
  9 10  1  0
 10 11  1  0
 10 13  2  0
 11 12  1  0
 13 16  1  0
 14 15  2  0
 14 16  1  1
 14 17  1  0
  3 18  1  0
  4 19  1  0
  5 20  1  0
  6 21  1  0
  7 22  1  0
  8 23  1  0
  9 24  1  0
 12 25  1  0
 12 26  1  0
 12 27  1  0
 13 28  1  0
M  END
>  <filename_input>  (1) 
8FO5_Y4U_docked.sdf

>  <pdb_id>  (1) 
8FO5_Y4U

>  <pose_rank>  (1) 
0

>  <num_atoms_heavy>  (1) 
17

>  <num_torsions>  (1) 
3

>  <pose>  (1) 
[23.814953237447792, -2.4201742410909417, -25.748813038727942, -5.352752930739477, -1.4409197721521074, 2.6467416889644415, -0.03747462040841401, 0.06249709355324898, 0.1406468001812128]

>  <energy>  (1) 
-827.6920549205818

>  <inter_energy>  (1) 
-814.9651857470708

>  <intra_energy>  (1) 
0.17617829033504875

>  <rmsd>  (1) 
0.565559

>  <sdf_rank>  (1) 
0

$$$$

     RDKit          3D

 28 29  0  0  0  0  0  0  0  0999 V2000
   26.0468   -7.7827  -21.9969 O   0  0  0  0  0  0  0  0  0  0  0  0
   23.3776   -2.4582  -25.6217 O   0  0  0  0  0  0  0  0  0  0  0  0
   20.7803   -3.1708  -24.2474 C   0  0  0  0  0  0  0  0  0  0  0  0
   19.4809   -3.0372  -23.7946 C   0  0  0  0  0  0  0  0  0  0  0  0
   19.2132   -2.3373  -22.6404 C   0  0  0  0  0  0  0  0  0  0  0  0
   20.2409   -1.7686  -21.9269 C   0  0  0  0  0  0  0  0  0  0  0  0
   21.5465   -1.8730  -22.3675 C   0  0  0  0  0  0  0  0  0  0  0  0
   24.2283   -5.1149  -24.8186 C   0  0  0  0  0  0  0  0  0  0  0  0
   24.7983   -6.1823  -24.1972 C   0  0  0  0  0  0  0  0  0  0  0  0
   24.9362   -5.8518  -22.8026 C   0  0  0  0  0  0  0  0  0  0  0  0
   25.4775   -6.6947  -21.7305 C   0  0  0  0  0  0  0  0  0  0  0  0
   25.4555   -6.1766  -20.3302 C   0  0  0  0  0  0  0  0  0  0  0  0
   24.4095   -4.5891  -22.6496 C   0  0  0  0  0  0  0  0  0  0  0  0
   23.4261   -2.5725  -24.2040 S   0  0  2  0  0  0  0  0  0  0  0  0
   24.2301   -1.6825  -23.4200 O   0  0  0  0  0  0  0  0  0  0  0  0
   23.9904   -4.1277  -23.8759 N   0  0  0  0  0  0  0  0  0  0  0  0
   21.8051   -2.5680  -23.5349 C   0  0  0  0  0  0  0  0  0  0  0  0
   20.9976   -3.7465  -25.1591 H   0  0  0  0  0  0  0  0  0  0  0  0
   18.6555   -3.4934  -24.3607 H   0  0  0  0  0  0  0  0  0  0  0  0
   18.1762   -2.2331  -22.2887 H   0  0  0  0  0  0  0  0  0  0  0  0
   20.0220   -1.2249  -20.9960 H   0  0  0  0  0  0  0  0  0  0  0  0
   22.3668   -1.4107  -21.7989 H   0  0  0  0  0  0  0  0  0  0  0  0
   23.9949   -5.0467  -25.8914 H   0  0  0  0  0  0  0  0  0  0  0  0
   25.0993   -7.1269  -24.6738 H   0  0  0  0  0  0  0  0  0  0  0  0
   25.4913   -7.0211  -19.6262 H   0  0  0  0  0  0  0  0  0  0  0  0
   26.3268   -5.5255  -20.1664 H   0  0  0  0  0  0  0  0  0  0  0  0
   24.5322   -5.6016  -20.1664 H   0  0  0  0  0  0  0  0  0  0  0  0
   24.3356   -4.0383  -21.7003 H   0  0  0  0  0  0  0  0  0  0  0  0
  1 11  2  0
  2 14  2  0
  3  4  2  0
  3 17  1  0
  4  5  1  0
  5  6  2  0
  6  7  1  0
  7 17  2  0
  8  9  2  0
  8 16  1  0
  9 10  1  0
 10 11  1  0
 10 13  2  0
 11 12  1  0
 13 16  1  0
 14 15  2  0
 14 16  1  6
 14 17  1  0
  3 18  1  0
  4 19  1  0
  5 20  1  0
  6 21  1  0
  7 22  1  0
  8 23  1  0
  9 24  1  0
 12 25  1  0
 12 26  1  0
 12 27  1  0
 13 28  1  0
M  END
>  <filename_input>  (2) 
8FO5_Y4U_docked.sdf

>  <pdb_id>  (2) 
8FO5_Y4U

>  <pose_rank>  (2) 
1

>  <num_atoms_heavy>  (2) 
17

>  <num_torsions>  (2) 
3

>  <pose>  (2) 
[23.37757463866961, -2.458156004209862, -25.62165759536654, 0.23286994139752065, 0.2038608142050428, -0.13336102091599444, -2.8774628072048305, -2.818807352760219, -3.159816696176033]

>  <energy>  (2) 
-774.8538372135223

>  <inter_energy>  (2) 
-757.3864053315115

>  <intra_energy>  (2) 
0.0

>  <rmsd>  (2) 
1.45054

>  <sdf_rank>  (2) 
0

$$$$

     RDKit          3D

 28 29  0  0  0  0  0  0  0  0999 V2000
   18.7041   -2.9284  -25.6259 O   0  0  0  0  0  0  0  0  0  0  0  0
   23.9659   -2.6965  -21.6212 O   0  0  0  0  0  0  0  0  0  0  0  0
   24.9189   -5.5319  -21.7817 C   0  0  0  0  0  0  0  0  0  0  0  0
   25.2129   -6.8818  -21.8330 C   0  0  0  0  0  0  0  0  0  0  0  0
   25.0726   -7.5818  -23.0093 C   0  0  0  0  0  0  0  0  0  0  0  0
   24.6338   -6.9408  -24.1430 C   0  0  0  0  0  0  0  0  0  0  0  0
   24.3498   -5.5886  -24.1222 C   0  0  0  0  0  0  0  0  0  0  0  0
   22.9724   -2.6792  -25.2627 C   0  0  0  0  0  0  0  0  0  0  0  0
   21.6884   -2.6369  -25.7102 C   0  0  0  0  0  0  0  0  0  0  0  0
   20.8249   -2.8347  -24.5751 C   0  0  0  0  0  0  0  0  0  0  0  0
   19.3579   -2.8478  -24.5559 C   0  0  0  0  0  0  0  0  0  0  0  0
   18.6580   -2.8944  -23.2377 C   0  0  0  0  0  0  0  0  0  0  0  0
   21.6484   -2.9631  -23.4793 C   0  0  0  0  0  0  0  0  0  0  0  0
   24.3146   -3.1471  -22.9252 S   0  0  2  0  0  0  0  0  0  0  0  0
   25.4239   -2.5760  -23.6301 O   0  0  0  0  0  0  0  0  0  0  0  0
   22.9582   -2.8850  -23.8926 N   0  0  0  0  0  0  0  0  0  0  0  0
   24.5051   -4.8903  -22.9386 C   0  0  0  0  0  0  0  0  0  0  0  0
   25.0119   -4.9755  -20.8374 H   0  0  0  0  0  0  0  0  0  0  0  0
   25.5615   -7.3997  -20.9273 H   0  0  0  0  0  0  0  0  0  0  0  0
   25.3117   -8.6550  -23.0422 H   0  0  0  0  0  0  0  0  0  0  0  0
   24.5074   -7.5097  -25.0759 H   0  0  0  0  0  0  0  0  0  0  0  0
   24.0058   -5.0757  -25.0325 H   0  0  0  0  0  0  0  0  0  0  0  0
   23.8725   -2.5685  -25.8852 H   0  0  0  0  0  0  0  0  0  0  0  0
   21.3680   -2.4800  -26.7507 H   0  0  0  0  0  0  0  0  0  0  0  0
   19.3997   -2.8450  -22.4268 H   0  0  0  0  0  0  0  0  0  0  0  0
   17.9696   -2.0402  -23.1576 H   0  0  0  0  0  0  0  0  0  0  0  0
   18.0891   -3.8325  -23.1576 H   0  0  0  0  0  0  0  0  0  0  0  0
   21.3132   -3.1051  -22.4413 H   0  0  0  0  0  0  0  0  0  0  0  0
  1 11  2  0
  2 14  2  0
  3  4  2  0
  3 17  1  0
  4  5  1  0
  5  6  2  0
  6  7  1  0
  7 17  2  0
  8  9  2  0
  8 16  1  0
  9 10  1  0
 10 11  1  0
 10 13  2  0
 11 12  1  0
 13 16  1  0
 14 15  2  0
 14 16  1  6
 14 17  1  0
  3 18  1  0
  4 19  1  0
  5 20  1  0
  6 21  1  0
  7 22  1  0
  8 23  1  0
  9 24  1  0
 12 25  1  0
 12 26  1  0
 12 27  1  0
 13 28  1  0
M  END
>  <filename_input>  (3) 
8FO5_Y4U_docked.sdf

>  <pdb_id>  (3) 
8FO5_Y4U

>  <pose_rank>  (3) 
2

>  <num_atoms_heavy>  (3) 
17

>  <num_torsions>  (3) 
3

>  <pose>  (3) 
[23.96590184766691, -2.6964514849884864, -21.62115396462656, 1.9181499657342906, 2.2567592478940104, -0.12336277506970478, -3.997842855669032, -0.0430948568242912, 3.199502578962147]

>  <energy>  (3) 
-666.1893803688955

>  <inter_energy>  (3) 
-635.1812172393323

>  <intra_energy>  (3) 
4.4470813769572075

>  <rmsd>  (3) 
5.40134

>  <sdf_rank>  (3) 
0

$$$$

     RDKit          3D

 28 29  0  0  0  0  0  0  0  0999 V2000
   25.9307   -8.1960  -20.9243 O   0  0  0  0  0  0  0  0  0  0  0  0
   21.7255   -4.5380  -24.3660 O   0  0  0  0  0  0  0  0  0  0  0  0
   21.3706   -2.2237  -22.5954 C   0  0  0  0  0  0  0  0  0  0  0  0
   21.0631   -1.0293  -21.9707 C   0  0  0  0  0  0  0  0  0  0  0  0
   21.9768   -0.0008  -21.9443 C   0  0  0  0  0  0  0  0  0  0  0  0
   23.2063   -0.1575  -22.5380 C   0  0  0  0  0  0  0  0  0  0  0  0
   23.5315   -1.3351  -23.1838 C   0  0  0  0  0  0  0  0  0  0  0  0
   24.5215   -4.2959  -22.0058 C   0  0  0  0  0  0  0  0  0  0  0  0
   25.1105   -5.3608  -21.3978 C   0  0  0  0  0  0  0  0  0  0  0  0
   24.8406   -6.5250  -22.2010 C   0  0  0  0  0  0  0  0  0  0  0  0
   25.2872   -7.9020  -21.9628 C   0  0  0  0  0  0  0  0  0  0  0  0
   24.8529   -8.9713  -22.9103 C   0  0  0  0  0  0  0  0  0  0  0  0
   24.1110   -6.0882  -23.2838 C   0  0  0  0  0  0  0  0  0  0  0  0
   22.9235   -3.7957  -24.1693 S   0  0  2  0  0  0  0  0  0  0  0  0
   23.7448   -3.4143  -25.2799 O   0  0  0  0  0  0  0  0  0  0  0  0
   23.8995   -4.7342  -23.1637 N   0  0  0  0  0  0  0  0  0  0  0  0
   22.6026   -2.3593  -23.2157 C   0  0  0  0  0  0  0  0  0  0  0  0
   20.6486   -3.0535  -22.6002 H   0  0  0  0  0  0  0  0  0  0  0  0
   20.0814   -0.9004  -21.4914 H   0  0  0  0  0  0  0  0  0  0  0  0
   21.7229    0.9474  -21.4478 H   0  0  0  0  0  0  0  0  0  0  0  0
   23.9386    0.6623  -22.4987 H   0  0  0  0  0  0  0  0  0  0  0  0
   24.5134   -1.4560  -23.6647 H   0  0  0  0  0  0  0  0  0  0  0  0
   24.5365   -3.2590  -21.6390 H   0  0  0  0  0  0  0  0  0  0  0  0
   25.6883   -5.3369  -20.4621 H   0  0  0  0  0  0  0  0  0  0  0  0
   24.4985   -9.8435  -22.3414 H   0  0  0  0  0  0  0  0  0  0  0  0
   24.0380   -8.5910  -23.5437 H   0  0  0  0  0  0  0  0  0  0  0  0
   25.7022   -9.2670  -23.5437 H   0  0  0  0  0  0  0  0  0  0  0  0
   23.7549   -6.7197  -24.1110 H   0  0  0  0  0  0  0  0  0  0  0  0
  1 11  2  0
  2 14  2  0
  3  4  2  0
  3 17  1  0
  4  5  1  0
  5  6  2  0
  6  7  1  0
  7 17  2  0
  8  9  2  0
  8 16  1  0
  9 10  1  0
 10 11  1  0
 10 13  2  0
 11 12  1  0
 13 16  1  0
 14 15  2  0
 14 16  1  1
 14 17  1  0
  3 18  1  0
  4 19  1  0
  5 20  1  0
  6 21  1  0
  7 22  1  0
  8 23  1  0
  9 24  1  0
 12 25  1  0
 12 26  1  0
 12 27  1  0
 13 28  1  0
M  END
>  <filename_input>  (4) 
8FO5_Y4U_docked.sdf

>  <pdb_id>  (4) 
8FO5_Y4U

>  <pose_rank>  (4) 
3

>  <num_atoms_heavy>  (4) 
17

>  <num_torsions>  (4) 
3

>  <pose>  (4) 
[21.725459340781406, -4.538036858098106, -24.365986079200788, -0.9135376226901337, 1.0777563593881787, -0.6189968411929093, -3.2995181410783396, 1.3013100195779634, 3.0303937587012473]

>  <energy>  (4) 
-590.3396676890505

>  <inter_energy>  (4) 
-591.607713209626

>  <intra_energy>  (4) 
6.437815302102017

>  <rmsd>  (4) 
2.36428

>  <sdf_rank>  (4) 
0

$$$$

     RDKit          3D

 28 29  0  0  0  0  0  0  0  0999 V2000
   18.7619   -4.1980  -23.9338 O   0  0  0  0  0  0  0  0  0  0  0  0
   24.6792   -3.5739  -22.5724 O   0  0  0  0  0  0  0  0  0  0  0  0
   24.6205   -3.7576  -25.4937 C   0  0  0  0  0  0  0  0  0  0  0  0
   24.8017   -3.8311  -26.8622 C   0  0  0  0  0  0  0  0  0  0  0  0
   24.5443   -2.7395  -27.6594 C   0  0  0  0  0  0  0  0  0  0  0  0
   24.1000   -1.5668  -27.0972 C   0  0  0  0  0  0  0  0  0  0  0  0
   23.9273   -1.4622  -25.7301 C   0  0  0  0  0  0  0  0  0  0  0  0
   21.9110   -1.7087  -21.7820 C   0  0  0  0  0  0  0  0  0  0  0  0
   20.5601   -1.8231  -21.8940 C   0  0  0  0  0  0  0  0  0  0  0  0
   20.2853   -2.6007  -23.0743 C   0  0  0  0  0  0  0  0  0  0  0  0
   18.9754   -3.0068  -23.5957 C   0  0  0  0  0  0  0  0  0  0  0  0
   17.8631   -2.0105  -23.5960 C   0  0  0  0  0  0  0  0  0  0  0  0
   21.5080   -2.9415  -23.6073 C   0  0  0  0  0  0  0  0  0  0  0  0
   24.1514   -2.4051  -23.1892 S   0  0  2  0  0  0  0  0  0  0  0  0
   24.6461   -1.1042  -22.8478 O   0  0  0  0  0  0  0  0  0  0  0  0
   22.5027   -2.3886  -22.8343 N   0  0  0  0  0  0  0  0  0  0  0  0
   24.1999   -2.5608  -24.9353 C   0  0  0  0  0  0  0  0  0  0  0  0
   24.8071   -4.6355  -24.8576 H   0  0  0  0  0  0  0  0  0  0  0  0
   25.1542   -4.7687  -27.3170 H   0  0  0  0  0  0  0  0  0  0  0  0
   24.6941   -2.8055  -28.7471 H   0  0  0  0  0  0  0  0  0  0  0  0
   23.8797   -0.7030  -27.7416 H   0  0  0  0  0  0  0  0  0  0  0  0
   23.5787   -0.5204  -25.2812 H   0  0  0  0  0  0  0  0  0  0  0  0
   22.4450   -1.1664  -20.9878 H   0  0  0  0  0  0  0  0  0  0  0  0
   19.8131   -1.3985  -21.2073 H   0  0  0  0  0  0  0  0  0  0  0  0
   17.5898   -1.7658  -22.5590 H   0  0  0  0  0  0  0  0  0  0  0  0
   18.1893   -1.0969  -24.1147 H   0  0  0  0  0  0  0  0  0  0  0  0
   16.9908   -2.4350  -24.1147 H   0  0  0  0  0  0  0  0  0  0  0  0
   21.6644   -3.5564  -24.5059 H   0  0  0  0  0  0  0  0  0  0  0  0
  1 11  2  0
  2 14  2  0
  3  4  2  0
  3 17  1  0
  4  5  1  0
  5  6  2  0
  6  7  1  0
  7 17  2  0
  8  9  2  0
  8 16  1  0
  9 10  1  0
 10 11  1  0
 10 13  2  0
 11 12  1  0
 13 16  1  0
 14 15  2  0
 14 16  1  1
 14 17  1  0
  3 18  1  0
  4 19  1  0
  5 20  1  0
  6 21  1  0
  7 22  1  0
  8 23  1  0
  9 24  1  0
 12 25  1  0
 12 26  1  0
 12 27  1  0
 13 28  1  0
M  END
>  <filename_input>  (5) 
8FO5_Y4U_docked.sdf

>  <pdb_id>  (5) 
8FO5_Y4U

>  <pose_rank>  (5) 
4

>  <num_atoms_heavy>  (5) 
17

>  <num_torsions>  (5) 
3

>  <pose>  (5) 
[24.67915956013226, -3.5738735744936285, -22.57240309832835, -0.8748467473107538, -1.7016578686871096, -0.6980129968918616, -3.4070038280163293, -1.062850605033226, 0.6632421538020927]

>  <energy>  (5) 
-564.5466846121988

>  <inter_energy>  (5) 
-563.0199367894262

>  <intra_energy>  (5) 
2.141434309332804

>  <rmsd>  (5) 
5.23442

>  <sdf_rank>  (5) 
0

$$$$

     RDKit          3D

 28 29  0  0  0  0  0  0  0  0999 V2000
   24.5747   -1.8286  -24.0044 O   0  0  0  0  0  0  0  0  0  0  0  0
   25.0029   -7.6074  -25.0151 O   0  0  0  0  0  0  0  0  0  0  0  0
   25.0423   -8.6199  -21.2851 C   0  0  0  0  0  0  0  0  0  0  0  0
   25.8959   -9.2508  -20.3993 C   0  0  0  0  0  0  0  0  0  0  0  0
   27.0105   -9.9146  -20.8579 C   0  0  0  0  0  0  0  0  0  0  0  0
   27.2800   -9.9573  -22.2048 C   0  0  0  0  0  0  0  0  0  0  0  0
   26.4520   -9.3201  -23.1093 C   0  0  0  0  0  0  0  0  0  0  0  0
   25.1093   -5.7725  -21.9376 C   0  0  0  0  0  0  0  0  0  0  0  0
   25.0337   -4.4216  -21.7965 C   0  0  0  0  0  0  0  0  0  0  0  0
   24.2794   -3.9089  -22.9106 C   0  0  0  0  0  0  0  0  0  0  0  0
   23.9165   -2.5134  -23.1816 C   0  0  0  0  0  0  0  0  0  0  0  0
   22.6754   -1.9613  -22.5614 C   0  0  0  0  0  0  0  0  0  0  0  0
   23.9120   -5.0003  -23.6650 C   0  0  0  0  0  0  0  0  0  0  0  0
   24.3697   -7.6900  -23.7433 S   0  0  2  0  0  0  0  0  0  0  0  0
   23.0092   -8.1237  -23.6242 O   0  0  0  0  0  0  0  0  0  0  0  0
   24.4271   -6.1374  -23.0869 N   0  0  0  0  0  0  0  0  0  0  0  0
   25.3404   -8.6453  -22.6384 C   0  0  0  0  0  0  0  0  0  0  0  0
   24.1405   -8.1057  -20.9215 H   0  0  0  0  0  0  0  0  0  0  0  0
   25.6825   -9.2220  -19.3206 H   0  0  0  0  0  0  0  0  0  0  0  0
   27.6862  -10.4113  -20.1461 H   0  0  0  0  0  0  0  0  0  0  0  0
   28.1634  -10.5040  -22.5665 H   0  0  0  0  0  0  0  0  0  0  0  0
   26.6734   -9.3492  -24.1864 H   0  0  0  0  0  0  0  0  0  0  0  0
   25.6263   -6.4608  -21.2528 H   0  0  0  0  0  0  0  0  0  0  0  0
   25.4699   -3.8284  -20.9792 H   0  0  0  0  0  0  0  0  0  0  0  0
   22.7642   -2.0009  -21.4657 H   0  0  0  0  0  0  0  0  0  0  0  0
   22.5388   -0.9176  -22.8808 H   0  0  0  0  0  0  0  0  0  0  0  0
   21.8088   -2.5589  -22.8808 H   0  0  0  0  0  0  0  0  0  0  0  0
   23.3048   -4.9683  -24.5817 H   0  0  0  0  0  0  0  0  0  0  0  0
  1 11  2  0
  2 14  2  0
  3  4  2  0
  3 17  1  0
  4  5  1  0
  5  6  2  0
  6  7  1  0
  7 17  2  0
  8  9  2  0
  8 16  1  0
  9 10  1  0
 10 11  1  0
 10 13  2  0
 11 12  1  0
 13 16  1  0
 14 15  2  0
 14 16  1  1
 14 17  1  0
  3 18  1  0
  4 19  1  0
  5 20  1  0
  6 21  1  0
  7 22  1  0
  8 23  1  0
  9 24  1  0
 12 25  1  0
 12 26  1  0
 12 27  1  0
 13 28  1  0
M  END
>  <filename_input>  (6) 
8FO5_Y4U_docked.sdf

>  <pdb_id>  (6) 
8FO5_Y4U

>  <pose_rank>  (6) 
5

>  <num_atoms_heavy>  (6) 
17

>  <num_torsions>  (6) 
3

>  <pose>  (6) 
[25.002855265134226, -7.607442555708712, -25.01509486044704, -0.6749736013057035, -0.02667229133838917, 2.3337994058746907, 5.70980306477901, 1.5325450322167187, -1.5803519603465652]

>  <energy>  (6) 
-444.102213796566

>  <inter_energy>  (6) 
-454.8127043656428

>  <intra_energy>  (6) 
23.126092799336035

>  <rmsd>  (6) 
6.46574

>  <sdf_rank>  (6) 
0

$$$$

     RDKit          3D

 28 29  0  0  0  0  0  0  0  0999 V2000
   23.5552   -1.6979  -22.3860 O   0  0  0  0  0  0  0  0  0  0  0  0
   24.9274   -7.4354  -25.2999 O   0  0  0  0  0  0  0  0  0  0  0  0
   25.3714   -8.4608  -21.6171 C   0  0  0  0  0  0  0  0  0  0  0  0
   26.3433   -9.0407  -20.8231 C   0  0  0  0  0  0  0  0  0  0  0  0
   27.4086   -9.6988  -21.3936 C   0  0  0  0  0  0  0  0  0  0  0  0
   27.5103   -9.7866  -22.7613 C   0  0  0  0  0  0  0  0  0  0  0  0
   26.5613   -9.2005  -23.5772 C   0  0  0  0  0  0  0  0  0  0  0  0
   24.7251   -5.8186  -21.9894 C   0  0  0  0  0  0  0  0  0  0  0  0
   24.6408   -4.4735  -21.8046 C   0  0  0  0  0  0  0  0  0  0  0  0
   24.1618   -3.8944  -23.0328 C   0  0  0  0  0  0  0  0  0  0  0  0
   23.8899   -2.4798  -23.3110 C   0  0  0  0  0  0  0  0  0  0  0  0
   24.1433   -1.9576  -24.6868 C   0  0  0  0  0  0  0  0  0  0  0  0
   23.9549   -4.9428  -23.9008 C   0  0  0  0  0  0  0  0  0  0  0  0
   24.3772   -7.6374  -24.0032 S   0  0  2  0  0  0  0  0  0  0  0  0
   23.0770   -8.2164  -23.8363 O   0  0  0  0  0  0  0  0  0  0  0  0
   24.3106   -6.1164  -23.2775 N   0  0  0  0  0  0  0  0  0  0  0  0
   25.5003   -8.5309  -22.9953 C   0  0  0  0  0  0  0  0  0  0  0  0
   24.5091   -7.9515  -21.1620 H   0  0  0  0  0  0  0  0  0  0  0  0
   26.2644   -8.9757  -19.7278 H   0  0  0  0  0  0  0  0  0  0  0  0
   28.1792  -10.1548  -20.7547 H   0  0  0  0  0  0  0  0  0  0  0  0
   28.3553  -10.3286  -23.2110 H   0  0  0  0  0  0  0  0  0  0  0  0
   26.6484   -9.2656  -24.6718 H   0  0  0  0  0  0  0  0  0  0  0  0
   25.0659   -6.5487  -21.2405 H   0  0  0  0  0  0  0  0  0  0  0  0
   24.8929   -3.9272  -20.8837 H   0  0  0  0  0  0  0  0  0  0  0  0
   24.6225   -0.9696  -24.6215 H   0  0  0  0  0  0  0  0  0  0  0  0
   24.8050   -2.6512  -25.2262 H   0  0  0  0  0  0  0  0  0  0  0  0
   23.1888   -1.8672  -25.2262 H   0  0  0  0  0  0  0  0  0  0  0  0
   23.5678   -4.8560  -24.9268 H   0  0  0  0  0  0  0  0  0  0  0  0
  1 11  2  0
  2 14  2  0
  3  4  2  0
  3 17  1  0
  4  5  1  0
  5  6  2  0
  6  7  1  0
  7 17  2  0
  8  9  2  0
  8 16  1  0
  9 10  1  0
 10 11  1  0
 10 13  2  0
 11 12  1  0
 13 16  1  0
 14 15  2  0
 14 16  1  1
 14 17  1  0
  3 18  1  0
  4 19  1  0
  5 20  1  0
  6 21  1  0
  7 22  1  0
  8 23  1  0
  9 24  1  0
 12 25  1  0
 12 26  1  0
 12 27  1  0
 13 28  1  0
M  END
>  <filename_input>  (7) 
8FO5_Y4U_docked.sdf

>  <pdb_id>  (7) 
8FO5_Y4U

>  <pose_rank>  (7) 
6

>  <num_atoms_heavy>  (7) 
17

>  <num_torsions>  (7) 
3

>  <pose>  (7) 
[24.927392145594425, -7.435443233195063, -25.29990421222884, 0.9011381736375564, 0.13774293923322856, -3.6537831736841113, 5.574167557040214, -5.054647540078454, -3.8113013528012374]

>  <energy>  (7) 
-438.396343324451

>  <inter_energy>  (7) 
-466.4233117605327

>  <intra_energy>  (7) 
33.36993042731005

>  <rmsd>  (7) 
6.49343

>  <sdf_rank>  (7) 
0

$$$$

     RDKit          3D

 28 29  0  0  0  0  0  0  0  0999 V2000
   23.9182   -4.3087  -23.7568 O   0  0  0  0  0  0  0  0  0  0  0  0
   24.8175  -10.5387  -21.5241 O   0  0  0  0  0  0  0  0  0  0  0  0
   27.7481  -10.3412  -24.0411 C   0  0  0  0  0  0  0  0  0  0  0  0
   28.2168  -11.0474  -25.1334 C   0  0  0  0  0  0  0  0  0  0  0  0
   27.6923  -12.2812  -25.4433 C   0  0  0  0  0  0  0  0  0  0  0  0
   26.6984  -12.8218  -24.6632 C   0  0  0  0  0  0  0  0  0  0  0  0
   26.2007  -12.1285  -23.5763 C   0  0  0  0  0  0  0  0  0  0  0  0
   24.8955   -8.4773  -24.0624 C   0  0  0  0  0  0  0  0  0  0  0  0
   24.5152   -7.1972  -24.3215 C   0  0  0  0  0  0  0  0  0  0  0  0
   24.8824   -6.3950  -23.1836 C   0  0  0  0  0  0  0  0  0  0  0  0
   24.6961   -4.9505  -23.0071 C   0  0  0  0  0  0  0  0  0  0  0  0
   25.3457   -4.2804  -21.8414 C   0  0  0  0  0  0  0  0  0  0  0  0
   25.4987   -7.2449  -22.2929 C   0  0  0  0  0  0  0  0  0  0  0  0
   25.9991   -9.9133  -22.0119 S   0  0  2  0  0  0  0  0  0  0  0  0
   27.0406   -9.5053  -21.1162 O   0  0  0  0  0  0  0  0  0  0  0  0
   25.4965   -8.5178  -22.8147 N   0  0  0  0  0  0  0  0  0  0  0  0
   26.7254  -10.8839  -23.2792 C   0  0  0  0  0  0  0  0  0  0  0  0
   28.1801   -9.3637  -23.7809 H   0  0  0  0  0  0  0  0  0  0  0  0
   29.0144  -10.6200  -25.7588 H   0  0  0  0  0  0  0  0  0  0  0  0
   28.0688  -12.8351  -26.3160 H   0  0  0  0  0  0  0  0  0  0  0  0
   26.2952  -13.8159  -24.9063 H   0  0  0  0  0  0  0  0  0  0  0  0
   25.4000  -12.5597  -22.9575 H   0  0  0  0  0  0  0  0  0  0  0  0
   24.7501   -9.3376  -24.7324 H   0  0  0  0  0  0  0  0  0  0  0  0
   24.0172   -6.8397  -25.2348 H   0  0  0  0  0  0  0  0  0  0  0  0
   24.9417   -4.6971  -20.9070 H   0  0  0  0  0  0  0  0  0  0  0  0
   26.4318   -4.4504  -21.8793 H   0  0  0  0  0  0  0  0  0  0  0  0
   25.1421   -3.2001  -21.8793 H   0  0  0  0  0  0  0  0  0  0  0  0
   25.9241   -6.9533  -21.3213 H   0  0  0  0  0  0  0  0  0  0  0  0
  1 11  2  0
  2 14  2  0
  3  4  2  0
  3 17  1  0
  4  5  1  0
  5  6  2  0
  6  7  1  0
  7 17  2  0
  8  9  2  0
  8 16  1  0
  9 10  1  0
 10 11  1  0
 10 13  2  0
 11 12  1  0
 13 16  1  0
 14 15  2  0
 14 16  1  6
 14 17  1  0
  3 18  1  0
  4 19  1  0
  5 20  1  0
  6 21  1  0
  7 22  1  0
  8 23  1  0
  9 24  1  0
 12 25  1  0
 12 26  1  0
 12 27  1  0
 13 28  1  0
M  END
>  <filename_input>  (8) 
8FO5_Y4U_docked.sdf

>  <pdb_id>  (8) 
8FO5_Y4U

>  <pose_rank>  (8) 
7

>  <num_atoms_heavy>  (8) 
17

>  <num_torsions>  (8) 
3

>  <pose>  (8) 
[24.817538733527453, -10.538669986981148, -21.524087177091705, 1.7896129237437866, 1.7779113270566693, 1.7641222749677017, -0.5389767139350564, -4.033212771713677, -3.05120426000629]

>  <energy>  (8) 
-406.78528004829707

>  <inter_energy>  (8) 
-401.60967032323146

>  <intra_energy>  (8) 
4.6200827612406385

>  <rmsd>  (8) 
8.0536

>  <sdf_rank>  (8) 
0

$$$$

     RDKit          3D

 28 29  0  0  0  0  0  0  0  0999 V2000
   23.1923   -4.8639  -23.8872 O   0  0  0  0  0  0  0  0  0  0  0  0
   27.7086   -9.4250  -22.9035 O   0  0  0  0  0  0  0  0  0  0  0  0
   24.6910  -10.8811  -20.9555 C   0  0  0  0  0  0  0  0  0  0  0  0
   24.4390  -11.4909  -19.7406 C   0  0  0  0  0  0  0  0  0  0  0  0
   25.4760  -11.8281  -18.9013 C   0  0  0  0  0  0  0  0  0  0  0  0
   26.7731  -11.5629  -19.2697 C   0  0  0  0  0  0  0  0  0  0  0  0
   27.0504  -10.9386  -20.4710 C   0  0  0  0  0  0  0  0  0  0  0  0
   25.5159   -7.5828  -21.1467 C   0  0  0  0  0  0  0  0  0  0  0  0
   25.0318   -6.3184  -21.2789 C   0  0  0  0  0  0  0  0  0  0  0  0
   24.8371   -6.0714  -22.6840 C   0  0  0  0  0  0  0  0  0  0  0  0
   24.3118   -4.8562  -23.3166 C   0  0  0  0  0  0  0  0  0  0  0  0
   25.0702   -3.5797  -23.1583 C   0  0  0  0  0  0  0  0  0  0  0  0
   25.1969   -7.2300  -23.3348 C   0  0  0  0  0  0  0  0  0  0  0  0
   26.3121   -9.6516  -22.7499 S   0  0  2  0  0  0  0  0  0  0  0  0
   25.5347  -10.2108  -23.8159 O   0  0  0  0  0  0  0  0  0  0  0  0
   25.6261   -8.1497  -22.4061 N   0  0  0  0  0  0  0  0  0  0  0  0
   26.0013  -10.5924  -21.3030 C   0  0  0  0  0  0  0  0  0  0  0  0
   23.8643  -10.6289  -21.6359 H   0  0  0  0  0  0  0  0  0  0  0  0
   23.4025  -11.7080  -19.4429 H   0  0  0  0  0  0  0  0  0  0  0  0
   25.2666  -12.3102  -17.9350 H   0  0  0  0  0  0  0  0  0  0  0  0
   27.5986  -11.8503  -18.6019 H   0  0  0  0  0  0  0  0  0  0  0  0
   28.0889  -10.7205  -20.7608 H   0  0  0  0  0  0  0  0  0  0  0  0
   25.7765   -8.0736  -20.1974 H   0  0  0  0  0  0  0  0  0  0  0  0
   24.8264   -5.6125  -20.4607 H   0  0  0  0  0  0  0  0  0  0  0  0
   25.2003   -3.3608  -22.0882 H   0  0  0  0  0  0  0  0  0  0  0  0
   26.0567   -3.6778  -23.6351 H   0  0  0  0  0  0  0  0  0  0  0  0
   24.5124   -2.7603  -23.6351 H   0  0  0  0  0  0  0  0  0  0  0  0
   25.1490   -7.3939  -24.4214 H   0  0  0  0  0  0  0  0  0  0  0  0
  1 11  2  0
  2 14  2  0
  3  4  2  0
  3 17  1  0
  4  5  1  0
  5  6  2  0
  6  7  1  0
  7 17  2  0
  8  9  2  0
  8 16  1  0
  9 10  1  0
 10 11  1  0
 10 13  2  0
 11 12  1  0
 13 16  1  0
 14 15  2  0
 14 16  1  1
 14 17  1  0
  3 18  1  0
  4 19  1  0
  5 20  1  0
  6 21  1  0
  7 22  1  0
  8 23  1  0
  9 24  1  0
 12 25  1  0
 12 26  1  0
 12 27  1  0
 13 28  1  0
M  END
>  <filename_input>  (9) 
8FO5_Y4U_docked.sdf

>  <pdb_id>  (9) 
8FO5_Y4U

>  <pose_rank>  (9) 
8

>  <num_atoms_heavy>  (9) 
17

>  <num_torsions>  (9) 
3

>  <pose>  (9) 
[27.70861181092995, -9.424990029055259, -22.903484469748673, 2.479095045994179, 0.7528598470253461, -2.5739396594328614, 5.901643553652928, 14.621885795373027, 1.014281536619352]

>  <energy>  (9) 
-338.7949589311898

>  <inter_energy>  (9) 
-340.6729342575582

>  <intra_energy>  (9) 
4.745096639911561

>  <rmsd>  (9) 
7.55202

>  <sdf_rank>  (9) 
0

$$$$

     RDKit          3D

 28 29  0  0  0  0  0  0  0  0999 V2000
   24.4870   -5.4190  -22.5064 O   0  0  0  0  0  0  0  0  0  0  0  0
   25.4994  -11.7284  -20.0173 O   0  0  0  0  0  0  0  0  0  0  0  0
   28.6709  -10.5086  -21.8699 C   0  0  0  0  0  0  0  0  0  0  0  0
   29.3013  -10.6743  -23.0891 C   0  0  0  0  0  0  0  0  0  0  0  0
   28.7572  -11.4961  -24.0493 C   0  0  0  0  0  0  0  0  0  0  0  0
   27.5815  -12.1622  -23.7988 C   0  0  0  0  0  0  0  0  0  0  0  0
   26.9230  -12.0000  -22.5948 C   0  0  0  0  0  0  0  0  0  0  0  0
   25.6456   -8.3106  -19.5565 C   0  0  0  0  0  0  0  0  0  0  0  0
   25.1834   -7.2059  -20.2019 C   0  0  0  0  0  0  0  0  0  0  0  0
   25.1206   -7.5165  -21.6065 C   0  0  0  0  0  0  0  0  0  0  0  0
   24.6633   -6.6484  -22.6973 C   0  0  0  0  0  0  0  0  0  0  0  0
   24.5359   -7.2258  -24.0684 C   0  0  0  0  0  0  0  0  0  0  0  0
   25.5319   -8.8242  -21.7330 C   0  0  0  0  0  0  0  0  0  0  0  0
   26.5737  -10.8087  -20.1753 S   0  0  2  0  0  0  0  0  0  0  0  0
   27.5187  -10.5910  -19.1202 O   0  0  0  0  0  0  0  0  0  0  0  0
   25.8681   -9.3096  -20.4905 N   0  0  0  0  0  0  0  0  0  0  0  0
   27.4708  -11.1628  -21.6400 C   0  0  0  0  0  0  0  0  0  0  0  0
   29.1149   -9.8674  -21.0942 H   0  0  0  0  0  0  0  0  0  0  0  0
   30.2441  -10.1456  -23.2929 H   0  0  0  0  0  0  0  0  0  0  0  0
   29.2636  -11.6200  -25.0179 H   0  0  0  0  0  0  0  0  0  0  0  0
   27.1606  -12.8309  -24.5641 H   0  0  0  0  0  0  0  0  0  0  0  0
   25.9782  -12.5283  -22.3989 H   0  0  0  0  0  0  0  0  0  0  0  0
   25.8145   -8.3966  -18.4730 H   0  0  0  0  0  0  0  0  0  0  0  0
   24.9077   -6.2487  -19.7353 H   0  0  0  0  0  0  0  0  0  0  0  0
   24.2994   -8.2975  -23.9944 H   0  0  0  0  0  0  0  0  0  0  0  0
   23.7302   -6.7091  -24.6105 H   0  0  0  0  0  0  0  0  0  0  0  0
   25.4843   -7.0962  -24.6105 H   0  0  0  0  0  0  0  0  0  0  0  0
   25.5834   -9.3896  -22.6752 H   0  0  0  0  0  0  0  0  0  0  0  0
  1 11  2  0
  2 14  2  0
  3  4  2  0
  3 17  1  0
  4  5  1  0
  5  6  2  0
  6  7  1  0
  7 17  2  0
  8  9  2  0
  8 16  1  0
  9 10  1  0
 10 11  1  0
 10 13  2  0
 11 12  1  0
 13 16  1  0
 14 15  2  0
 14 16  1  6
 14 17  1  0
  3 18  1  0
  4 19  1  0
  5 20  1  0
  6 21  1  0
  7 22  1  0
  8 23  1  0
  9 24  1  0
 12 25  1  0
 12 26  1  0
 12 27  1  0
 13 28  1  0
M  END
>  <filename_input>  (10) 
8FO5_Y4U_docked.sdf

>  <pdb_id>  (10) 
8FO5_Y4U

>  <pose_rank>  (10) 
9

>  <num_atoms_heavy>  (10) 
17

>  <num_torsions>  (10) 
3

>  <pose>  (10) 
[25.499364427822222, -11.728386164555051, -20.01734582672298, 1.7392746244743513, 1.7172287583515538, 2.284225500041005, -0.17862061374451488, -1.0142784286751176, 3.182012387807623]

>  <energy>  (10) 
-299.82792649649986

>  <inter_energy>  (10) 
-312.5701684030241

>  <intra_energy>  (10) 
3.209420119924168

>  <rmsd>  (10) 
8.61068

>  <sdf_rank>  (10) 
0

$$$$

     RDKit          3D

 28 29  0  0  0  0  0  0  0  0999 V2000
   24.1119   -4.4995  -23.9519 O   0  0  0  0  0  0  0  0  0  0  0  0
   27.5597   -9.3256  -21.4317 O   0  0  0  0  0  0  0  0  0  0  0  0
   25.1785  -11.5710  -19.9325 C   0  0  0  0  0  0  0  0  0  0  0  0
   24.3752  -11.8691  -18.8475 C   0  0  0  0  0  0  0  0  0  0  0  0
   23.8404  -10.8613  -18.0782 C   0  0  0  0  0  0  0  0  0  0  0  0
   24.1063   -9.5480  -18.3834 C   0  0  0  0  0  0  0  0  0  0  0  0
   24.8921   -9.2233  -19.4728 C   0  0  0  0  0  0  0  0  0  0  0  0
   24.1421   -8.7060  -22.9997 C   0  0  0  0  0  0  0  0  0  0  0  0
   23.6785   -7.4601  -23.2885 C   0  0  0  0  0  0  0  0  0  0  0  0
   24.6621   -6.5129  -22.8317 C   0  0  0  0  0  0  0  0  0  0  0  0
   24.6177   -5.0505  -22.9422 C   0  0  0  0  0  0  0  0  0  0  0  0
   25.0656   -4.2292  -21.7783 C   0  0  0  0  0  0  0  0  0  0  0  0
   25.6969   -7.2523  -22.3048 C   0  0  0  0  0  0  0  0  0  0  0  0
   26.2733   -9.8571  -21.7279 S   0  0  2  0  0  0  0  0  0  0  0  0
   26.1219  -10.9629  -22.6267 O   0  0  0  0  0  0  0  0  0  0  0  0
   25.3804   -8.5884  -22.3895 N   0  0  0  0  0  0  0  0  0  0  0  0
   25.4157  -10.2423  -20.2475 C   0  0  0  0  0  0  0  0  0  0  0  0
   25.6225  -12.3760  -20.5365 H   0  0  0  0  0  0  0  0  0  0  0  0
   24.1621  -12.9189  -18.5976 H   0  0  0  0  0  0  0  0  0  0  0  0
   23.1996  -11.1071  -17.2185 H   0  0  0  0  0  0  0  0  0  0  0  0
   23.6897   -8.7475  -17.7544 H   0  0  0  0  0  0  0  0  0  0  0  0
   25.0978   -8.1713  -19.7198 H   0  0  0  0  0  0  0  0  0  0  0  0
   23.6204   -9.6502  -23.2149 H   0  0  0  0  0  0  0  0  0  0  0  0
   22.7251   -7.2199  -23.7816 H   0  0  0  0  0  0  0  0  0  0  0  0
   24.7886   -4.7373  -20.8428 H   0  0  0  0  0  0  0  0  0  0  0  0
   26.1576   -4.1027  -21.8174 H   0  0  0  0  0  0  0  0  0  0  0  0
   24.5805   -3.2427  -21.8174 H   0  0  0  0  0  0  0  0  0  0  0  0
   26.6264   -6.8412  -21.8840 H   0  0  0  0  0  0  0  0  0  0  0  0
  1 11  2  0
  2 14  2  0
  3  4  2  0
  3 17  1  0
  4  5  1  0
  5  6  2  0
  6  7  1  0
  7 17  2  0
  8  9  2  0
  8 16  1  0
  9 10  1  0
 10 11  1  0
 10 13  2  0
 11 12  1  0
 13 16  1  0
 14 15  2  0
 14 16  1  6
 14 17  1  0
  3 18  1  0
  4 19  1  0
  5 20  1  0
  6 21  1  0
  7 22  1  0
  8 23  1  0
  9 24  1  0
 12 25  1  0
 12 26  1  0
 12 27  1  0
 13 28  1  0
M  END
>  <filename_input>  (11) 
8FO5_Y4U_docked.sdf

>  <pdb_id>  (11) 
8FO5_Y4U

>  <pose_rank>  (11) 
10

>  <num_atoms_heavy>  (11) 
17

>  <num_torsions>  (11) 
3

>  <pose>  (11) 
[27.559744663271257, -9.3256122010839, -21.43167596544541, 2.514724990617613, 0.4943988206361951, -1.7697767896924803, 0.8557746084417789, 0.24296542502077387, 8.622559471187]

>  <energy>  (11) 
-369.8495516696555

>  <inter_energy>  (11) 
-354.6138348375603

>  <intra_energy>  (11) 
2.7239220209833794

>  <rmsd>  (11) 
7.36481

>  <sdf_rank>  (11) 
0

$$$$

     RDKit          3D

 28 29  0  0  0  0  0  0  0  0999 V2000
   23.4565   -3.2133  -21.8779 O   0  0  0  0  0  0  0  0  0  0  0  0
   25.3959   -8.9105  -24.4997 O   0  0  0  0  0  0  0  0  0  0  0  0
   26.8631   -9.4569  -20.9634 C   0  0  0  0  0  0  0  0  0  0  0  0
   28.0982   -9.6829  -20.3848 C   0  0  0  0  0  0  0  0  0  0  0  0
   29.1900   -9.9830  -21.1667 C   0  0  0  0  0  0  0  0  0  0  0  0
   29.0568  -10.0639  -22.5321 C   0  0  0  0  0  0  0  0  0  0  0  0
   27.8370   -9.8254  -23.1361 C   0  0  0  0  0  0  0  0  0  0  0  0
   25.5049   -6.9563  -21.3422 C   0  0  0  0  0  0  0  0  0  0  0  0
   25.1670   -5.6410  -21.2633 C   0  0  0  0  0  0  0  0  0  0  0  0
   24.3848   -5.3216  -22.4292 C   0  0  0  0  0  0  0  0  0  0  0  0
   23.7769   -4.0320  -22.7756 C   0  0  0  0  0  0  0  0  0  0  0  0
   23.6650   -3.6555  -24.2163 C   0  0  0  0  0  0  0  0  0  0  0  0
   24.2692   -6.4889  -23.1500 C   0  0  0  0  0  0  0  0  0  0  0  0
   25.2333   -9.0417  -23.0921 S   0  0  2  0  0  0  0  0  0  0  0  0
   24.1951   -9.8631  -22.5435 O   0  0  0  0  0  0  0  0  0  0  0  0
   24.9620   -7.4852  -22.5020 N   0  0  0  0  0  0  0  0  0  0  0  0
   26.7477   -9.5127  -22.3434 C   0  0  0  0  0  0  0  0  0  0  0  0
   25.9854   -9.2363  -20.3380 H   0  0  0  0  0  0  0  0  0  0  0  0
   28.2089   -9.6224  -19.2921 H   0  0  0  0  0  0  0  0  0  0  0  0
   30.1698  -10.1584  -20.6986 H   0  0  0  0  0  0  0  0  0  0  0  0
   29.9297  -10.3209  -23.1503 H   0  0  0  0  0  0  0  0  0  0  0  0
   27.7341   -9.8833  -24.2298 H   0  0  0  0  0  0  0  0  0  0  0  0
   26.1090   -7.5084  -20.6072 H   0  0  0  0  0  0  0  0  0  0  0  0
   25.4416   -4.9471  -20.4552 H   0  0  0  0  0  0  0  0  0  0  0  0
   23.3525   -2.6039  -24.2972 H   0  0  0  0  0  0  0  0  0  0  0  0
   24.6410   -3.7867  -24.7064 H   0  0  0  0  0  0  0  0  0  0  0  0
   22.9191   -4.2984  -24.7064 H   0  0  0  0  0  0  0  0  0  0  0  0
   23.7129   -6.6059  -24.0918 H   0  0  0  0  0  0  0  0  0  0  0  0
  1 11  2  0
  2 14  2  0
  3  4  2  0
  3 17  1  0
  4  5  1  0
  5  6  2  0
  6  7  1  0
  7 17  2  0
  8  9  2  0
  8 16  1  0
  9 10  1  0
 10 11  1  0
 10 13  2  0
 11 12  1  0
 13 16  1  0
 14 15  2  0
 14 16  1  1
 14 17  1  0
  3 18  1  0
  4 19  1  0
  5 20  1  0
  6 21  1  0
  7 22  1  0
  8 23  1  0
  9 24  1  0
 12 25  1  0
 12 26  1  0
 12 27  1  0
 13 28  1  0
M  END
>  <filename_input>  (12) 
8FO5_Y4U_docked.sdf

>  <pdb_id>  (12) 
8FO5_Y4U

>  <pose_rank>  (12) 
11

>  <num_atoms_heavy>  (12) 
17

>  <num_torsions>  (12) 
3

>  <pose>  (12) 
[25.39585000723267, -8.910477604673385, -24.499695031940615, -0.34063362517751167, 0.08509394026048657, 2.7512240749928774, 5.735213514980947, 7.424718109129494, 2.4922523310046327]

>  <energy>  (12) 
-333.9597544110249

>  <inter_energy>  (12) 
-361.02404024819856

>  <intra_energy>  (12) 
25.906183591890063

>  <rmsd>  (12) 
7.41083

>  <sdf_rank>  (12) 
0

$$$$

     RDKit          3D

 28 29  0  0  0  0  0  0  0  0999 V2000
   23.7476   -9.4496  -17.0426 O   0  0  0  0  0  0  0  0  0  0  0  0
   24.0930   -9.2939  -22.8163 O   0  0  0  0  0  0  0  0  0  0  0  0
   23.9914   -6.2854  -23.3362 C   0  0  0  0  0  0  0  0  0  0  0  0
   23.7938   -4.9172  -23.3598 C   0  0  0  0  0  0  0  0  0  0  0  0
   24.4097   -4.1078  -22.4330 C   0  0  0  0  0  0  0  0  0  0  0  0
   25.2246   -4.6579  -21.4728 C   0  0  0  0  0  0  0  0  0  0  0  0
   25.4519   -6.0205  -21.4384 C   0  0  0  0  0  0  0  0  0  0  0  0
   26.8402   -9.3569  -20.4047 C   0  0  0  0  0  0  0  0  0  0  0  0
   26.7848   -9.4614  -19.0495 C   0  0  0  0  0  0  0  0  0  0  0  0
   25.4595   -9.0783  -18.6371 C   0  0  0  0  0  0  0  0  0  0  0  0
   24.9169   -9.0521  -17.2742 C   0  0  0  0  0  0  0  0  0  0  0  0
   25.8207   -8.6675  -16.1495 C   0  0  0  0  0  0  0  0  0  0  0  0
   24.7657   -8.7818  -19.7887 C   0  0  0  0  0  0  0  0  0  0  0  0
   25.2410   -8.5300  -22.4646 S   0  0  2  0  0  0  0  0  0  0  0  0
   26.4653   -8.6594  -23.1980 O   0  0  0  0  0  0  0  0  0  0  0  0
   25.6048   -8.9342  -20.8681 N   0  0  0  0  0  0  0  0  0  0  0  0
   24.8383   -6.8252  -22.3811 C   0  0  0  0  0  0  0  0  0  0  0  0
   23.4841   -6.9355  -24.0643 H   0  0  0  0  0  0  0  0  0  0  0  0
   23.1399   -4.4728  -24.1245 H   0  0  0  0  0  0  0  0  0  0  0  0
   24.2496   -3.0198  -22.4607 H   0  0  0  0  0  0  0  0  0  0  0  0
   25.7004   -4.0073  -20.7243 H   0  0  0  0  0  0  0  0  0  0  0  0
   26.1104   -6.4581  -20.6736 H   0  0  0  0  0  0  0  0  0  0  0  0
   27.7199   -9.5722  -21.0290 H   0  0  0  0  0  0  0  0  0  0  0  0
   27.6039   -9.7808  -18.3885 H   0  0  0  0  0  0  0  0  0  0  0  0
   25.3238   -8.8790  -15.1911 H   0  0  0  0  0  0  0  0  0  0  0  0
   26.7537   -9.2466  -16.2144 H   0  0  0  0  0  0  0  0  0  0  0  0
   26.0504   -7.5938  -16.2144 H   0  0  0  0  0  0  0  0  0  0  0  0
   23.7111   -8.4729  -19.8377 H   0  0  0  0  0  0  0  0  0  0  0  0
  1 11  2  0
  2 14  2  0
  3  4  2  0
  3 17  1  0
  4  5  1  0
  5  6  2  0
  6  7  1  0
  7 17  2  0
  8  9  2  0
  8 16  1  0
  9 10  1  0
 10 11  1  0
 10 13  2  0
 11 12  1  0
 13 16  1  0
 14 15  2  0
 14 16  1  1
 14 17  1  0
  3 18  1  0
  4 19  1  0
  5 20  1  0
  6 21  1  0
  7 22  1  0
  8 23  1  0
  9 24  1  0
 12 25  1  0
 12 26  1  0
 12 27  1  0
 13 28  1  0
M  END
>  <filename_input>  (13) 
8FO5_Y4U_docked.sdf

>  <pdb_id>  (13) 
8FO5_Y4U

>  <pose_rank>  (13) 
12

>  <num_atoms_heavy>  (13) 
17

>  <num_torsions>  (13) 
3

>  <pose>  (13) 
[24.093031610824735, -9.293936950199074, -22.816341077372833, -1.0604061053198561, 0.6187571205234349, -1.0919446067525818, -10.475558581923332, -0.4972136950734012, 0.5373210720686609]

>  <energy>  (13) 
-344.3913533134194

>  <inter_energy>  (13) 
-333.101550477653

>  <intra_energy>  (13) 
7.886952777609125

>  <rmsd>  (13) 
5.96888

>  <sdf_rank>  (13) 
0

$$$$

     RDKit          3D

 28 29  0  0  0  0  0  0  0  0999 V2000
   24.9070  -10.3050  -17.5609 O   0  0  0  0  0  0  0  0  0  0  0  0
   25.9314   -9.2553  -24.1712 O   0  0  0  0  0  0  0  0  0  0  0  0
   25.7339   -6.2376  -21.7587 C   0  0  0  0  0  0  0  0  0  0  0  0
   25.0612   -5.0364  -21.6333 C   0  0  0  0  0  0  0  0  0  0  0  0
   24.1313   -4.6565  -22.5738 C   0  0  0  0  0  0  0  0  0  0  0  0
   23.8683   -5.4709  -23.6491 C   0  0  0  0  0  0  0  0  0  0  0  0
   24.5145   -6.6845  -23.7881 C   0  0  0  0  0  0  0  0  0  0  0  0
   24.5454  -10.7338  -22.0885 C   0  0  0  0  0  0  0  0  0  0  0  0
   24.0192  -11.2263  -20.9348 C   0  0  0  0  0  0  0  0  0  0  0  0
   24.3840  -10.3270  -19.8711 C   0  0  0  0  0  0  0  0  0  0  0  0
   24.0285  -10.4266  -18.4511 C   0  0  0  0  0  0  0  0  0  0  0  0
   22.5873  -10.5452  -18.0790 C   0  0  0  0  0  0  0  0  0  0  0  0
   25.1027   -9.3079  -20.4545 C   0  0  0  0  0  0  0  0  0  0  0  0
   26.1469   -8.6669  -22.8935 S   0  0  2  0  0  0  0  0  0  0  0  0
   27.4620   -8.5911  -22.3293 O   0  0  0  0  0  0  0  0  0  0  0  0
   25.2183   -9.5569  -21.8025 N   0  0  0  0  0  0  0  0  0  0  0  0
   25.4389   -7.0637  -22.8318 C   0  0  0  0  0  0  0  0  0  0  0  0
   26.4916   -6.5333  -21.0181 H   0  0  0  0  0  0  0  0  0  0  0  0
   25.2707   -4.3798  -20.7760 H   0  0  0  0  0  0  0  0  0  0  0  0
   23.5982   -3.7005  -22.4649 H   0  0  0  0  0  0  0  0  0  0  0  0
   23.1362   -5.1538  -24.4064 H   0  0  0  0  0  0  0  0  0  0  0  0
   24.2972   -7.3383  -24.6456 H   0  0  0  0  0  0  0  0  0  0  0  0
   24.4520  -11.1935  -23.0835 H   0  0  0  0  0  0  0  0  0  0  0  0
   23.4231  -12.1451  -20.8329 H   0  0  0  0  0  0  0  0  0  0  0  0
   22.4910  -10.5531  -16.9832 H   0  0  0  0  0  0  0  0  0  0  0  0
   22.0309   -9.6898  -18.4898 H   0  0  0  0  0  0  0  0  0  0  0  0
   22.1782  -11.4800  -18.4898 H   0  0  0  0  0  0  0  0  0  0  0  0
   25.5174   -8.4357  -19.9279 H   0  0  0  0  0  0  0  0  0  0  0  0
  1 11  2  0
  2 14  2  0
  3  4  2  0
  3 17  1  0
  4  5  1  0
  5  6  2  0
  6  7  1  0
  7 17  2  0
  8  9  2  0
  8 16  1  0
  9 10  1  0
 10 11  1  0
 10 13  2  0
 11 12  1  0
 13 16  1  0
 14 15  2  0
 14 16  1  1
 14 17  1  0
  3 18  1  0
  4 19  1  0
  5 20  1  0
  6 21  1  0
  7 22  1  0
  8 23  1  0
  9 24  1  0
 12 25  1  0
 12 26  1  0
 12 27  1  0
 13 28  1  0
M  END
>  <filename_input>  (14) 
8FO5_Y4U_docked.sdf

>  <pdb_id>  (14) 
8FO5_Y4U

>  <pose_rank>  (14) 
13

>  <num_atoms_heavy>  (14) 
17

>  <num_torsions>  (14) 
3

>  <pose>  (14) 
[25.931445163307465, -9.25525012333298, -24.17120540772444, -0.23975975222354218, -0.050042218345601984, -1.1893120712997463, -0.15553323903329605, 3.704836366558118, 5.25425098114929]

>  <energy>  (14) 
-327.932283588008

>  <inter_energy>  (14) 
-320.9745394665852

>  <intra_energy>  (14) 
4.920591455697394

>  <rmsd>  (14) 
6.1156

>  <sdf_rank>  (14) 
0

$$$$

     RDKit          3D

 28 29  0  0  0  0  0  0  0  0999 V2000
   27.7324   -9.8550  -26.8642 O   0  0  0  0  0  0  0  0  0  0  0  0
   24.8117   -9.1386  -20.7685 O   0  0  0  0  0  0  0  0  0  0  0  0
   25.2223   -6.2392  -20.7576 C   0  0  0  0  0  0  0  0  0  0  0  0
   25.2236   -4.8610  -20.6486 C   0  0  0  0  0  0  0  0  0  0  0  0
   24.9122   -4.0753  -21.7345 C   0  0  0  0  0  0  0  0  0  0  0  0
   24.6008   -4.6590  -22.9390 C   0  0  0  0  0  0  0  0  0  0  0  0
   24.5756   -6.0345  -23.0695 C   0  0  0  0  0  0  0  0  0  0  0  0
   27.3295   -9.1770  -22.4303 C   0  0  0  0  0  0  0  0  0  0  0  0
   28.1225   -9.7333  -23.3854 C   0  0  0  0  0  0  0  0  0  0  0  0
   27.3001   -9.9896  -24.5392 C   0  0  0  0  0  0  0  0  0  0  0  0
   27.7130  -10.5619  -25.8255 C   0  0  0  0  0  0  0  0  0  0  0  0
   28.2329  -11.9614  -25.8544 C   0  0  0  0  0  0  0  0  0  0  0  0
   26.0370   -9.5431  -24.2218 C   0  0  0  0  0  0  0  0  0  0  0  0
   24.6903   -8.5577  -22.0619 S   0  0  2  0  0  0  0  0  0  0  0  0
   23.5554   -8.8362  -22.8912 O   0  0  0  0  0  0  0  0  0  0  0  0
   26.0437   -9.0611  -22.9333 N   0  0  0  0  0  0  0  0  0  0  0  0
   24.8783   -6.8166  -21.9698 C   0  0  0  0  0  0  0  0  0  0  0  0
   25.4902   -6.8678  -19.8956 H   0  0  0  0  0  0  0  0  0  0  0  0
   25.4753   -4.3893  -19.6872 H   0  0  0  0  0  0  0  0  0  0  0  0
   24.9125   -2.9795  -21.6383 H   0  0  0  0  0  0  0  0  0  0  0  0
   24.3694   -4.0251  -23.8078 H   0  0  0  0  0  0  0  0  0  0  0  0
   24.3189   -6.4999  -24.0326 H   0  0  0  0  0  0  0  0  0  0  0  0
   27.6550   -8.8702  -21.4253 H   0  0  0  0  0  0  0  0  0  0  0  0
   29.1973   -9.9483  -23.2931 H   0  0  0  0  0  0  0  0  0  0  0  0
   28.3675  -12.3238  -24.8245 H   0  0  0  0  0  0  0  0  0  0  0  0
   27.5151  -12.6084  -26.3799 H   0  0  0  0  0  0  0  0  0  0  0  0
   29.1990  -11.9829  -26.3799 H   0  0  0  0  0  0  0  0  0  0  0  0
   25.1638   -9.5678  -24.8903 H   0  0  0  0  0  0  0  0  0  0  0  0
  1 11  2  0
  2 14  2  0
  3  4  2  0
  3 17  1  0
  4  5  1  0
  5  6  2  0
  6  7  1  0
  7 17  2  0
  8  9  2  0
  8 16  1  0
  9 10  1  0
 10 11  1  0
 10 13  2  0
 11 12  1  0
 13 16  1  0
 14 15  2  0
 14 16  1  6
 14 17  1  0
  3 18  1  0
  4 19  1  0
  5 20  1  0
  6 21  1  0
  7 22  1  0
  8 23  1  0
  9 24  1  0
 12 25  1  0
 12 26  1  0
 12 27  1  0
 13 28  1  0
M  END
>  <filename_input>  (15) 
8FO5_Y4U_docked.sdf

>  <pdb_id>  (15) 
8FO5_Y4U

>  <pose_rank>  (15) 
14

>  <num_atoms_heavy>  (15) 
17

>  <num_torsions>  (15) 
3

>  <pose>  (15) 
[24.811738560596336, -9.13860298990109, -20.768457440761203, 2.3042790364169985, -2.413966201993442, -0.2341421990429777, -3.3911687791423253, 2.8777783601866167, 1.0287330902982885]

>  <energy>  (15) 
-327.6783925079665

>  <inter_energy>  (15) 
-319.7391212409028

>  <intra_energy>  (15) 
0.0

>  <rmsd>  (15) 
5.85974

>  <sdf_rank>  (15) 
0

$$$$

     RDKit          3D

 28 29  0  0  0  0  0  0  0  0999 V2000
   23.8990   -6.6954  -23.6464 O   0  0  0  0  0  0  0  0  0  0  0  0
   27.6694  -11.0750  -19.7875 O   0  0  0  0  0  0  0  0  0  0  0  0
   23.9329  -10.9776  -18.9824 C   0  0  0  0  0  0  0  0  0  0  0  0
   23.0445  -10.4768  -18.0490 C   0  0  0  0  0  0  0  0  0  0  0  0
   23.4653   -9.5724  -17.1011 C   0  0  0  0  0  0  0  0  0  0  0  0
   24.7772   -9.1637  -17.0748 C   0  0  0  0  0  0  0  0  0  0  0  0
   25.6808   -9.6363  -18.0074 C   0  0  0  0  0  0  0  0  0  0  0  0
   27.0106   -9.6074  -22.4982 C   0  0  0  0  0  0  0  0  0  0  0  0
   26.5908   -8.5053  -23.1761 C   0  0  0  0  0  0  0  0  0  0  0  0
   25.5206   -7.9097  -22.4190 C   0  0  0  0  0  0  0  0  0  0  0  0
   24.7664   -6.6922  -22.7373 C   0  0  0  0  0  0  0  0  0  0  0  0
   24.9549   -5.4860  -21.8775 C   0  0  0  0  0  0  0  0  0  0  0  0
   25.3659   -8.6843  -21.2913 C   0  0  0  0  0  0  0  0  0  0  0  0
   26.3272  -11.0202  -20.2573 S   0  0  2  0  0  0  0  0  0  0  0  0
   25.7362  -12.1380  -20.9315 O   0  0  0  0  0  0  0  0  0  0  0  0
   26.2596   -9.7290  -21.3403 N   0  0  0  0  0  0  0  0  0  0  0  0
   25.2465  -10.5359  -18.9638 C   0  0  0  0  0  0  0  0  0  0  0  0
   23.6024  -11.7155  -19.7283 H   0  0  0  0  0  0  0  0  0  0  0  0
   21.9943  -10.8034  -18.0642 H   0  0  0  0  0  0  0  0  0  0  0  0
   22.7513   -9.1764  -16.3640 H   0  0  0  0  0  0  0  0  0  0  0  0
   25.1111   -8.4536  -16.3040 H   0  0  0  0  0  0  0  0  0  0  0  0
   26.7288   -9.3023  -17.9892 H   0  0  0  0  0  0  0  0  0  0  0  0
   27.8133  -10.2890  -22.8164 H   0  0  0  0  0  0  0  0  0  0  0  0
   26.9955   -8.1361  -24.1300 H   0  0  0  0  0  0  0  0  0  0  0  0
   24.9090   -5.7799  -20.8184 H   0  0  0  0  0  0  0  0  0  0  0  0
   25.9347   -5.0335  -22.0903 H   0  0  0  0  0  0  0  0  0  0  0  0
   24.1600   -4.7562  -22.0903 H   0  0  0  0  0  0  0  0  0  0  0  0
   24.6445   -8.4979  -20.4822 H   0  0  0  0  0  0  0  0  0  0  0  0
  1 11  2  0
  2 14  2  0
  3  4  2  0
  3 17  1  0
  4  5  1  0
  5  6  2  0
  6  7  1  0
  7 17  2  0
  8  9  2  0
  8 16  1  0
  9 10  1  0
 10 11  1  0
 10 13  2  0
 11 12  1  0
 13 16  1  0
 14 15  2  0
 14 16  1  6
 14 17  1  0
  3 18  1  0
  4 19  1  0
  5 20  1  0
  6 21  1  0
  7 22  1  0
  8 23  1  0
  9 24  1  0
 12 25  1  0
 12 26  1  0
 12 27  1  0
 13 28  1  0
M  END
>  <filename_input>  (16) 
8FO5_Y4U_docked.sdf

>  <pdb_id>  (16) 
8FO5_Y4U

>  <pose_rank>  (16) 
15

>  <num_atoms_heavy>  (16) 
17

>  <num_torsions>  (16) 
3

>  <pose>  (16) 
[27.66938186255659, -11.075049412870257, -19.787518645004674, -2.673750244615539, 0.38046139733174544, 1.54832773743741, 0.16045154409342433, 4.601156275287516, -2.017140636492045]

>  <energy>  (16) 
-326.8240882109149

>  <inter_energy>  (16) 
-328.05980818046925

>  <intra_energy>  (16) 
5.81389953019281

>  <rmsd>  (16) 
7.91278

>  <sdf_rank>  (16) 
0

$$$$

     RDKit          3D

 28 29  0  0  0  0  0  0  0  0999 V2000
   24.8542   -5.4608  -19.1331 O   0  0  0  0  0  0  0  0  0  0  0  0
   23.8239   -2.9064  -25.2752 O   0  0  0  0  0  0  0  0  0  0  0  0
   21.0680   -3.6490  -24.3369 C   0  0  0  0  0  0  0  0  0  0  0  0
   19.6955   -3.6187  -24.1738 C   0  0  0  0  0  0  0  0  0  0  0  0
   19.1232   -2.7941  -23.2325 C   0  0  0  0  0  0  0  0  0  0  0  0
   19.9166   -1.9961  -22.4437 C   0  0  0  0  0  0  0  0  0  0  0  0
   21.2898   -1.9952  -22.5988 C   0  0  0  0  0  0  0  0  0  0  0  0
   24.7755   -5.1651  -23.7211 C   0  0  0  0  0  0  0  0  0  0  0  0
   25.3020   -5.9798  -22.7674 C   0  0  0  0  0  0  0  0  0  0  0  0
   25.0761   -5.3567  -21.4891 C   0  0  0  0  0  0  0  0  0  0  0  0
   25.4454   -5.8679  -20.1645 C   0  0  0  0  0  0  0  0  0  0  0  0
   26.4449   -6.9737  -20.0753 C   0  0  0  0  0  0  0  0  0  0  0  0
   24.3905   -4.1900  -21.7425 C   0  0  0  0  0  0  0  0  0  0  0  0
   23.5743   -2.7128  -23.8877 S   0  0  2  0  0  0  0  0  0  0  0  0
   24.0876   -1.5654  -23.1997 O   0  0  0  0  0  0  0  0  0  0  0  0
   24.2175   -4.0589  -23.1010 N   0  0  0  0  0  0  0  0  0  0  0  0
   21.8556   -2.8182  -23.5555 C   0  0  0  0  0  0  0  0  0  0  0  0
   21.5279   -4.3221  -25.0754 H   0  0  0  0  0  0  0  0  0  0  0  0
   19.0566   -4.2580  -24.8008 H   0  0  0  0  0  0  0  0  0  0  0  0
   18.0301   -2.7738  -23.1114 H   0  0  0  0  0  0  0  0  0  0  0  0
   19.4542   -1.3518  -21.6814 H   0  0  0  0  0  0  0  0  0  0  0  0
   21.9226   -1.3503  -21.9714 H   0  0  0  0  0  0  0  0  0  0  0  0
   24.7904   -5.3533  -24.8048 H   0  0  0  0  0  0  0  0  0  0  0  0
   25.8086   -6.9406  -22.9412 H   0  0  0  0  0  0  0  0  0  0  0  0
   26.6488   -7.1993  -19.0182 H   0  0  0  0  0  0  0  0  0  0  0  0
   26.0448   -7.8705  -20.5710 H   0  0  0  0  0  0  0  0  0  0  0  0
   27.3774   -6.6660  -20.5710 H   0  0  0  0  0  0  0  0  0  0  0  0
   24.0382   -3.4778  -20.9818 H   0  0  0  0  0  0  0  0  0  0  0  0
  1 11  2  0
  2 14  2  0
  3  4  2  0
  3 17  1  0
  4  5  1  0
  5  6  2  0
  6  7  1  0
  7 17  2  0
  8  9  2  0
  8 16  1  0
  9 10  1  0
 10 11  1  0
 10 13  2  0
 11 12  1  0
 13 16  1  0
 14 15  2  0
 14 16  1  1
 14 17  1  0
  3 18  1  0
  4 19  1  0
  5 20  1  0
  6 21  1  0
  7 22  1  0
  8 23  1  0
  9 24  1  0
 12 25  1  0
 12 26  1  0
 12 27  1  0
 13 28  1  0
M  END
>  <filename_input>  (17) 
8FO5_Y4U_docked.sdf

>  <pdb_id>  (17) 
8FO5_Y4U

>  <pose_rank>  (17) 
16

>  <num_atoms_heavy>  (17) 
17

>  <num_torsions>  (17) 
3

>  <pose>  (17) 
[23.823856063925017, -2.9064453790725264, -25.27522829478003, -5.742087006658716, 2.3899480919072, -0.8453037099188011, 3.34013263083693, -2.8033129657341687, 0.20586930930638098]

>  <energy>  (17) 
-647.1967695748915

>  <inter_energy>  (17) 
-631.4062649178337

>  <intra_energy>  (17) 
0.0

>  <rmsd>  (17) 
1.91467

>  <sdf_rank>  (17) 
0

$$$$

     RDKit          3D

 28 29  0  0  0  0  0  0  0  0999 V2000
   25.6690   -5.9693  -20.9293 O   0  0  0  0  0  0  0  0  0  0  0  0
   25.8244  -12.5917  -21.0621 O   0  0  0  0  0  0  0  0  0  0  0  0
   28.6686  -10.9093  -22.0135 C   0  0  0  0  0  0  0  0  0  0  0  0
   29.7530  -10.9574  -22.8696 C   0  0  0  0  0  0  0  0  0  0  0  0
   30.5384  -12.0853  -22.9374 C   0  0  0  0  0  0  0  0  0  0  0  0
   30.2499  -13.1727  -22.1482 C   0  0  0  0  0  0  0  0  0  0  0  0
   29.1614  -13.1562  -21.2969 C   0  0  0  0  0  0  0  0  0  0  0  0
   26.9100   -9.6162  -19.0272 C   0  0  0  0  0  0  0  0  0  0  0  0
   26.5495   -8.3289  -19.2786 C   0  0  0  0  0  0  0  0  0  0  0  0
   25.9213   -8.2976  -20.5739 C   0  0  0  0  0  0  0  0  0  0  0  0
   25.3487   -7.1370  -21.2650 C   0  0  0  0  0  0  0  0  0  0  0  0
   24.4799   -7.3687  -22.4572 C   0  0  0  0  0  0  0  0  0  0  0  0
   25.9137   -9.5957  -21.0324 C   0  0  0  0  0  0  0  0  0  0  0  0
   26.8916  -12.0370  -20.3016 S   0  0  2  0  0  0  0  0  0  0  0  0
   27.2045  -12.5382  -18.9961 O   0  0  0  0  0  0  0  0  0  0  0  0
   26.5281  -10.4021  -20.1024 N   0  0  0  0  0  0  0  0  0  0  0  0
   28.3705  -12.0229  -21.2440 C   0  0  0  0  0  0  0  0  0  0  0  0
   28.0517  -10.0012  -21.9441 H   0  0  0  0  0  0  0  0  0  0  0  0
   29.9897  -10.0882  -23.5009 H   0  0  0  0  0  0  0  0  0  0  0  0
   31.3976  -12.1165  -23.6235 H   0  0  0  0  0  0  0  0  0  0  0  0
   30.8916  -14.0650  -22.1945 H   0  0  0  0  0  0  0  0  0  0  0  0
   28.9278  -14.0304  -20.6714 H   0  0  0  0  0  0  0  0  0  0  0  0
   27.4201   -9.9739  -18.1206 H   0  0  0  0  0  0  0  0  0  0  0  0
   26.7090   -7.4677  -18.6130 H   0  0  0  0  0  0  0  0  0  0  0  0
   23.4665   -7.6389  -22.1255 H   0  0  0  0  0  0  0  0  0  0  0  0
   24.4352   -6.4511  -23.0622 H   0  0  0  0  0  0  0  0  0  0  0  0
   24.8980   -8.1867  -23.0622 H   0  0  0  0  0  0  0  0  0  0  0  0
   25.4855   -9.9335  -21.9876 H   0  0  0  0  0  0  0  0  0  0  0  0
  1 11  2  0
  2 14  2  0
  3  4  2  0
  3 17  1  0
  4  5  1  0
  5  6  2  0
  6  7  1  0
  7 17  2  0
  8  9  2  0
  8 16  1  0
  9 10  1  0
 10 11  1  0
 10 13  2  0
 11 12  1  0
 13 16  1  0
 14 15  2  0
 14 16  1  1
 14 17  1  0
  3 18  1  0
  4 19  1  0
  5 20  1  0
  6 21  1  0
  7 22  1  0
  8 23  1  0
  9 24  1  0
 12 25  1  0
 12 26  1  0
 12 27  1  0
 13 28  1  0
M  END
>  <filename_input>  (18) 
8FO5_Y4U_docked.sdf

>  <pdb_id>  (18) 
8FO5_Y4U

>  <pose_rank>  (18) 
17

>  <num_atoms_heavy>  (18) 
17

>  <num_torsions>  (18) 
3

>  <pose>  (18) 
[25.82439611872718, -12.591675935224393, -21.062147735324043, 1.1080259013534044, 0.9443972187617724, 2.8543710516193546, 4.377414072271837, 6.188056804857072, 3.2982019444195037]

>  <energy>  (18) 
-224.91862079813356

>  <inter_energy>  (18) 
-236.07723977677543

>  <intra_energy>  (18) 
10.896101854309162

>  <rmsd>  (18) 
9.79308

>  <sdf_rank>  (18) 
0

$$$$

     RDKit          3D

 28 29  0  0  0  0  0  0  0  0999 V2000
   27.5628  -12.6871  -14.3362 O   0  0  0  0  0  0  0  0  0  0  0  0
   22.8971  -10.3912  -18.3806 O   0  0  0  0  0  0  0  0  0  0  0  0
   24.9812  -10.8606  -20.4372 C   0  0  0  0  0  0  0  0  0  0  0  0
   25.6794  -10.9427  -21.6276 C   0  0  0  0  0  0  0  0  0  0  0  0
   25.6187  -12.0837  -22.3943 C   0  0  0  0  0  0  0  0  0  0  0  0
   24.8637  -13.1535  -21.9770 C   0  0  0  0  0  0  0  0  0  0  0  0
   24.1428  -13.0901  -20.7997 C   0  0  0  0  0  0  0  0  0  0  0  0
   24.2939  -13.6183  -16.9677 C   0  0  0  0  0  0  0  0  0  0  0  0
   25.2449  -13.6711  -15.9964 C   0  0  0  0  0  0  0  0  0  0  0  0
   25.7136  -12.3282  -15.7724 C   0  0  0  0  0  0  0  0  0  0  0  0
   26.7217  -11.8799  -14.8053 C   0  0  0  0  0  0  0  0  0  0  0  0
   26.8132  -10.4238  -14.4871 C   0  0  0  0  0  0  0  0  0  0  0  0
   24.9892  -11.5187  -16.6182 C   0  0  0  0  0  0  0  0  0  0  0  0
   23.1665  -11.7651  -18.6349 S   0  0  2  0  0  0  0  0  0  0  0  0
   22.1006  -12.7156  -18.7526 O   0  0  0  0  0  0  0  0  0  0  0  0
   24.1335  -12.2993  -17.3604 N   0  0  0  0  0  0  0  0  0  0  0  0
   24.2002  -11.9350  -20.0414 C   0  0  0  0  0  0  0  0  0  0  0  0
   25.0446   -9.9565  -19.8138 H   0  0  0  0  0  0  0  0  0  0  0  0
   26.2876  -10.0901  -21.9642 H   0  0  0  0  0  0  0  0  0  0  0  0
   26.1748  -12.1396  -23.3418 H   0  0  0  0  0  0  0  0  0  0  0  0
   24.8328  -14.0690  -22.5859 H   0  0  0  0  0  0  0  0  0  0  0  0
   23.5332  -13.9447  -20.4710 H   0  0  0  0  0  0  0  0  0  0  0  0
   23.7436  -14.4798  -17.3739 H   0  0  0  0  0  0  0  0  0  0  0  0
   25.5928  -14.5758  -15.4764 H   0  0  0  0  0  0  0  0  0  0  0  0
   26.8218  -10.2868  -13.3957 H   0  0  0  0  0  0  0  0  0  0  0  0
   27.7389  -10.0123  -14.9156 H   0  0  0  0  0  0  0  0  0  0  0  0
   25.9462   -9.8997  -14.9156 H   0  0  0  0  0  0  0  0  0  0  0  0
   25.0800  -10.4247  -16.6890 H   0  0  0  0  0  0  0  0  0  0  0  0
  1 11  2  0
  2 14  2  0
  3  4  2  0
  3 17  1  0
  4  5  1  0
  5  6  2  0
  6  7  1  0
  7 17  2  0
  8  9  2  0
  8 16  1  0
  9 10  1  0
 10 11  1  0
 10 13  2  0
 11 12  1  0
 13 16  1  0
 14 15  2  0
 14 16  1  1
 14 17  1  0
  3 18  1  0
  4 19  1  0
  5 20  1  0
  6 21  1  0
  7 22  1  0
  8 23  1  0
  9 24  1  0
 12 25  1  0
 12 26  1  0
 12 27  1  0
 13 28  1  0
M  END
>  <filename_input>  (19) 
8FO5_Y4U_docked.sdf

>  <pdb_id>  (19) 
8FO5_Y4U

>  <pose_rank>  (19) 
18

>  <num_atoms_heavy>  (19) 
17

>  <num_torsions>  (19) 
3

>  <pose>  (19) 
[22.897139008157176, -10.391157719220642, -18.38057562134682, 1.0905565786950926, -1.4963920413816874, 1.7793271634123888, 3.1784554511748944, 0.0482248128710585, 3.333425136507392]

>  <energy>  (19) 
-142.28424059276074

>  <inter_energy>  (19) 
-140.28054434797377

>  <intra_energy>  (19) 
0.0

>  <rmsd>  (19) 
10.4844

>  <sdf_rank>  (19) 
0

$$$$

     RDKit          3D

 28 29  0  0  0  0  0  0  0  0999 V2000
   28.1222  -14.0718  -15.9601 O   0  0  0  0  0  0  0  0  0  0  0  0
   23.4230   -9.7321  -18.5077 O   0  0  0  0  0  0  0  0  0  0  0  0
   25.3954   -8.8425  -20.5454 C   0  0  0  0  0  0  0  0  0  0  0  0
   25.9772   -8.3401  -21.6945 C   0  0  0  0  0  0  0  0  0  0  0  0
   26.2437   -9.1682  -22.7606 C   0  0  0  0  0  0  0  0  0  0  0  0
   25.9352  -10.5054  -22.6868 C   0  0  0  0  0  0  0  0  0  0  0  0
   25.3374  -11.0289  -21.5562 C   0  0  0  0  0  0  0  0  0  0  0  0
   26.2353  -10.3710  -17.3927 C   0  0  0  0  0  0  0  0  0  0  0  0
   26.9571  -11.0724  -16.4775 C   0  0  0  0  0  0  0  0  0  0  0  0
   26.5003  -12.4373  -16.5159 C   0  0  0  0  0  0  0  0  0  0  0  0
   26.9939  -13.5707  -15.7258 C   0  0  0  0  0  0  0  0  0  0  0  0
   26.1896  -14.0343  -14.5561 C   0  0  0  0  0  0  0  0  0  0  0  0
   25.5267  -12.4929  -17.4877 C   0  0  0  0  0  0  0  0  0  0  0  0
   24.1547  -10.7884  -19.1193 S   0  0  2  0  0  0  0  0  0  0  0  0
   23.5042  -12.0020  -19.5161 O   0  0  0  0  0  0  0  0  0  0  0  0
   25.3490  -11.2349  -18.0153 N   0  0  0  0  0  0  0  0  0  0  0  0
   25.0623  -10.1869  -20.4940 C   0  0  0  0  0  0  0  0  0  0  0  0
   25.1999   -8.1854  -19.6852 H   0  0  0  0  0  0  0  0  0  0  0  0
   26.2287   -7.2710  -21.7570 H   0  0  0  0  0  0  0  0  0  0  0  0
   26.7039   -8.7598  -23.6724 H   0  0  0  0  0  0  0  0  0  0  0  0
   26.1663  -11.1654  -23.5359 H   0  0  0  0  0  0  0  0  0  0  0  0
   25.0845  -12.0980  -21.5018 H   0  0  0  0  0  0  0  0  0  0  0  0
   26.3382   -9.2963  -17.6034 H   0  0  0  0  0  0  0  0  0  0  0  0
   27.7468  -10.6697  -15.8261 H   0  0  0  0  0  0  0  0  0  0  0  0
   26.6959  -13.7425  -13.6242 H   0  0  0  0  0  0  0  0  0  0  0  0
   25.1917  -13.5729  -14.5913 H   0  0  0  0  0  0  0  0  0  0  0  0
   26.0888  -15.1291  -14.5913 H   0  0  0  0  0  0  0  0  0  0  0  0
   24.9795  -13.3970  -17.7930 H   0  0  0  0  0  0  0  0  0  0  0  0
  1 11  2  0
  2 14  2  0
  3  4  2  0
  3 17  1  0
  4  5  1  0
  5  6  2  0
  6  7  1  0
  7 17  2  0
  8  9  2  0
  8 16  1  0
  9 10  1  0
 10 11  1  0
 10 13  2  0
 11 12  1  0
 13 16  1  0
 14 15  2  0
 14 16  1  1
 14 17  1  0
  3 18  1  0
  4 19  1  0
  5 20  1  0
  6 21  1  0
  7 22  1  0
  8 23  1  0
  9 24  1  0
 12 25  1  0
 12 26  1  0
 12 27  1  0
 13 28  1  0
M  END
>  <filename_input>  (20) 
8FO5_Y4U_docked.sdf

>  <pdb_id>  (20) 
8FO5_Y4U

>  <pose_rank>  (20) 
19

>  <num_atoms_heavy>  (20) 
17

>  <num_torsions>  (20) 
3

>  <pose>  (20) 
[23.422994329186494, -9.732107122379832, -18.507727184007837, 1.626573764308431, -1.632996445620113, 1.823845722514648, 3.2106406230603963, 2.6672800018840053, 1.7107633748877238]

>  <energy>  (20) 
-196.01456546357966

>  <inter_energy>  (20) 
-202.78701368958065

>  <intra_energy>  (20) 
1.1642111583486714

>  <rmsd>  (20) 
9.42215

>  <sdf_rank>  (20) 
0

$$$$

     RDKit          3D

 28 29  0  0  0  0  0  0  0  0999 V2000
   24.3512   -1.5641  -22.7011 O   0  0  0  0  0  0  0  0  0  0  0  0
   25.1783   -7.7457  -24.5438 O   0  0  0  0  0  0  0  0  0  0  0  0
   25.5907   -8.2750  -20.7439 C   0  0  0  0  0  0  0  0  0  0  0  0
   26.5691   -8.7044  -19.8665 C   0  0  0  0  0  0  0  0  0  0  0  0
   27.6956   -9.3406  -20.3352 C   0  0  0  0  0  0  0  0  0  0  0  0
   27.8527   -9.5567  -21.6833 C   0  0  0  0  0  0  0  0  0  0  0  0
   26.8976   -9.1219  -22.5823 C   0  0  0  0  0  0  0  0  0  0  0  0
   25.0130   -5.6437  -21.5434 C   0  0  0  0  0  0  0  0  0  0  0  0
   24.8697   -4.2910  -21.5577 C   0  0  0  0  0  0  0  0  0  0  0  0
   24.2821   -3.9288  -22.8214 C   0  0  0  0  0  0  0  0  0  0  0  0
   23.9183   -2.5866  -23.2892 C   0  0  0  0  0  0  0  0  0  0  0  0
   23.1317   -2.4556  -24.5517 C   0  0  0  0  0  0  0  0  0  0  0  0
   24.0753   -5.1061  -23.5044 C   0  0  0  0  0  0  0  0  0  0  0  0
   24.6322   -7.7640  -23.2298 S   0  0  2  0  0  0  0  0  0  0  0  0
   23.3449   -8.3396  -22.9747 O   0  0  0  0  0  0  0  0  0  0  0  0
   24.5323   -6.1536  -22.7386 N   0  0  0  0  0  0  0  0  0  0  0  0
   25.7742   -8.4728  -22.1034 C   0  0  0  0  0  0  0  0  0  0  0  0
   24.6807   -7.7840  -20.3688 H   0  0  0  0  0  0  0  0  0  0  0  0
   26.4461   -8.5364  -18.7864 H   0  0  0  0  0  0  0  0  0  0  0  0
   28.4707   -9.6763  -19.6306 H   0  0  0  0  0  0  0  0  0  0  0  0
   28.7475  -10.0810  -22.0502 H   0  0  0  0  0  0  0  0  0  0  0  0
   27.0287   -9.2893  -23.6616 H   0  0  0  0  0  0  0  0  0  0  0  0
   25.4397   -6.2347  -20.7195 H   0  0  0  0  0  0  0  0  0  0  0  0
   25.1516   -3.5993  -20.7503 H   0  0  0  0  0  0  0  0  0  0  0  0
   22.0737   -2.2794  -24.3079 H   0  0  0  0  0  0  0  0  0  0  0  0
   23.5186   -1.6095  -25.1386 H   0  0  0  0  0  0  0  0  0  0  0  0
   23.2235   -3.3814  -25.1386 H   0  0  0  0  0  0  0  0  0  0  0  0
   23.6186   -5.1948  -24.5011 H   0  0  0  0  0  0  0  0  0  0  0  0
  1 11  2  0
  2 14  2  0
  3  4  2  0
  3 17  1  0
  4  5  1  0
  5  6  2  0
  6  7  1  0
  7 17  2  0
  8  9  2  0
  8 16  1  0
  9 10  1  0
 10 11  1  0
 10 13  2  0
 11 12  1  0
 13 16  1  0
 14 15  2  0
 14 16  1  1
 14 17  1  0
  3 18  1  0
  4 19  1  0
  5 20  1  0
  6 21  1  0
  7 22  1  0
  8 23  1  0
  9 24  1  0
 12 25  1  0
 12 26  1  0
 12 27  1  0
 13 28  1  0
M  END
>  <filename_input>  (21) 
8FO5_Y4U_docked.sdf

>  <pdb_id>  (21) 
8FO5_Y4U

>  <pose_rank>  (21) 
20

>  <num_atoms_heavy>  (21) 
17

>  <num_torsions>  (21) 
3

>  <pose>  (21) 
[25.17828536286055, -7.745661744674365, -24.543772498597264, -0.6680240169259917, 0.08586693956922863, 2.486175565083189, 5.649507617107698, 7.584067900803215, 3.2220783689829955]

>  <energy>  (21) 
-413.56195149231496

>  <inter_energy>  (21) 
-438.0250862432407

>  <intra_energy>  (21) 
29.396950810623675

>  <rmsd>  (21) 
6.62451

>  <sdf_rank>  (21) 
0

$$$$

     RDKit          3D

 28 29  0  0  0  0  0  0  0  0999 V2000
   14.3436  -10.6425  -32.9848 O   0  0  0  0  0  0  0  0  0  0  0  0
   14.9452   -9.5231  -27.0572 O   0  0  0  0  0  0  0  0  0  0  0  0
   15.9525  -13.0740  -25.9379 C   0  0  0  0  0  0  0  0  0  0  0  0
   15.5417  -14.0654  -25.0662 C   0  0  0  0  0  0  0  0  0  0  0  0
   14.3877  -13.9142  -24.3321 C   0  0  0  0  0  0  0  0  0  0  0  0
   13.6365  -12.7705  -24.4593 C   0  0  0  0  0  0  0  0  0  0  0  0
   14.0162  -11.7724  -25.3364 C   0  0  0  0  0  0  0  0  0  0  0  0
   13.6653  -12.0840  -28.7560 C   0  0  0  0  0  0  0  0  0  0  0  0
   13.3393  -12.3051  -30.0581 C   0  0  0  0  0  0  0  0  0  0  0  0
   14.3689  -11.7121  -30.8715 C   0  0  0  0  0  0  0  0  0  0  0  0
   14.4659  -11.7113  -32.3354 C   0  0  0  0  0  0  0  0  0  0  0  0
   14.8410  -12.9786  -33.0303 C   0  0  0  0  0  0  0  0  0  0  0  0
   15.2910  -11.1770  -30.0004 C   0  0  0  0  0  0  0  0  0  0  0  0
   15.5844  -10.7675  -27.3178 S   0  0  2  0  0  0  0  0  0  0  0  0
   16.9987  -10.8377  -27.5377 O   0  0  0  0  0  0  0  0  0  0  0  0
   14.8613  -11.3860  -28.7103 N   0  0  0  0  0  0  0  0  0  0  0  0
   15.1712  -11.9380  -26.0790 C   0  0  0  0  0  0  0  0  0  0  0  0
   16.8850  -13.1851  -26.5106 H   0  0  0  0  0  0  0  0  0  0  0  0
   16.1415  -14.9813  -24.9588 H   0  0  0  0  0  0  0  0  0  0  0  0
   14.0664  -14.7092  -23.6432 H   0  0  0  0  0  0  0  0  0  0  0  0
   12.7241  -12.6483  -23.8571 H   0  0  0  0  0  0  0  0  0  0  0  0
   13.4097  -10.8609  -25.4422 H   0  0  0  0  0  0  0  0  0  0  0  0
   13.0770  -12.4060  -27.8841 H   0  0  0  0  0  0  0  0  0  0  0  0
   12.4503  -12.8399  -30.4233 H   0  0  0  0  0  0  0  0  0  0  0  0
   15.0700  -13.7526  -32.2830 H   0  0  0  0  0  0  0  0  0  0  0  0
   14.0034  -13.3133  -33.6600 H   0  0  0  0  0  0  0  0  0  0  0  0
   15.7258  -12.8036  -33.6600 H   0  0  0  0  0  0  0  0  0  0  0  0
   16.2208  -10.6651  -30.2892 H   0  0  0  0  0  0  0  0  0  0  0  0
  1 11  2  0
  2 14  2  0
  3  4  2  0
  3 17  1  0
  4  5  1  0
  5  6  2  0
  6  7  1  0
  7 17  2  0
  8  9  2  0
  8 16  1  0
  9 10  1  0
 10 11  1  0
 10 13  2  0
 11 12  1  0
 13 16  1  0
 14 15  2  0
 14 16  1  6
 14 17  1  0
  3 18  1  0
  4 19  1  0
  5 20  1  0
  6 21  1  0
  7 22  1  0
  8 23  1  0
  9 24  1  0
 12 25  1  0
 12 26  1  0
 12 27  1  0
 13 28  1  0
M  END
>  <filename_input>  (22) 
8FO5_Y4U_docked.sdf

>  <pdb_id>  (22) 
8FO5_Y4U

>  <pose_rank>  (22) 
21

>  <num_atoms_heavy>  (22) 
17

>  <num_torsions>  (22) 
3

>  <pose>  (22) 
[14.945212177115916, -9.523093715285013, -27.057151674683492, -2.9781784690932946, -2.8646422920470918, 0.9146580633225765, -0.0428050606272499, 2.122679912425832, -1.356278179128497]

>  <energy>  (22) 
-190.1431801233351

>  <inter_energy>  (22) 
-164.944766008321

>  <intra_energy>  (22) 
3.6833125810964544

>  <rmsd>  (22) 
13.2534

>  <sdf_rank>  (22) 
0

$$$$

     RDKit          3D

 28 29  0  0  0  0  0  0  0  0999 V2000
   13.2911   -6.9514  -14.6943 O   0  0  0  0  0  0  0  0  0  0  0  0
   13.4292   -0.8944  -17.6987 O   0  0  0  0  0  0  0  0  0  0  0  0
   16.7168   -1.1321  -15.6996 C   0  0  0  0  0  0  0  0  0  0  0  0
   17.2426   -0.7594  -14.4766 C   0  0  0  0  0  0  0  0  0  0  0  0
   16.4463   -0.1577  -13.5294 C   0  0  0  0  0  0  0  0  0  0  0  0
   15.1195    0.0803  -13.7969 C   0  0  0  0  0  0  0  0  0  0  0  0
   14.5657   -0.2983  -15.0050 C   0  0  0  0  0  0  0  0  0  0  0  0
   13.8572   -4.1247  -17.8969 C   0  0  0  0  0  0  0  0  0  0  0  0
   13.7503   -5.3022  -17.2240 C   0  0  0  0  0  0  0  0  0  0  0  0
   14.1096   -5.0539  -15.8520 C   0  0  0  0  0  0  0  0  0  0  0  0
   14.1249   -6.0125  -14.7414 C   0  0  0  0  0  0  0  0  0  0  0  0
   15.2276   -5.9304  -13.7379 C   0  0  0  0  0  0  0  0  0  0  0  0
   14.3952   -3.7100  -15.7633 C   0  0  0  0  0  0  0  0  0  0  0  0
   14.6582   -1.5535  -17.4156 S   0  0  2  0  0  0  0  0  0  0  0  0
   15.6911   -1.6434  -18.4048 O   0  0  0  0  0  0  0  0  0  0  0  0
   14.2587   -3.1406  -17.0081 N   0  0  0  0  0  0  0  0  0  0  0  0
   15.3706   -0.9132  -15.9466 C   0  0  0  0  0  0  0  0  0  0  0  0
   17.3569   -1.5953  -16.4650 H   0  0  0  0  0  0  0  0  0  0  0  0
   18.3048   -0.9451  -14.2592 H   0  0  0  0  0  0  0  0  0  0  0  0
   16.8719    0.1329  -12.5576 H   0  0  0  0  0  0  0  0  0  0  0  0
   14.4922    0.5771  -13.0420 H   0  0  0  0  0  0  0  0  0  0  0  0
   13.5017   -0.1135  -15.2144 H   0  0  0  0  0  0  0  0  0  0  0  0
   13.6580   -3.9783  -18.9688 H   0  0  0  0  0  0  0  0  0  0  0  0
   13.4446   -6.2688  -17.6508 H   0  0  0  0  0  0  0  0  0  0  0  0
   14.8033   -5.9620  -12.7235 H   0  0  0  0  0  0  0  0  0  0  0  0
   15.9125   -6.7801  -13.8755 H   0  0  0  0  0  0  0  0  0  0  0  0
   15.7792   -4.9888  -13.8755 H   0  0  0  0  0  0  0  0  0  0  0  0
   14.6856   -3.1777  -14.8455 H   0  0  0  0  0  0  0  0  0  0  0  0
  1 11  2  0
  2 14  2  0
  3  4  2  0
  3 17  1  0
  4  5  1  0
  5  6  2  0
  6  7  1  0
  7 17  2  0
  8  9  2  0
  8 16  1  0
  9 10  1  0
 10 11  1  0
 10 13  2  0
 11 12  1  0
 13 16  1  0
 14 15  2  0
 14 16  1  1
 14 17  1  0
  3 18  1  0
  4 19  1  0
  5 20  1  0
  6 21  1  0
  7 22  1  0
  8 23  1  0
  9 24  1  0
 12 25  1  0
 12 26  1  0
 12 27  1  0
 13 28  1  0
M  END
>  <filename_input>  (23) 
8FO5_Y4U_docked.sdf

>  <pdb_id>  (23) 
8FO5_Y4U

>  <pose_rank>  (23) 
22

>  <num_atoms_heavy>  (23) 
17

>  <num_torsions>  (23) 
3

>  <pose>  (23) 
[13.429168570807674, -0.8944227193489387, -17.698716386313418, -0.12666861738220128, -3.550641504406549, 2.600362356795537, -0.02718833740790412, -1.4264857067327246, 2.3845176557305545]

>  <energy>  (23) 
-186.6085085604787

>  <inter_energy>  (23) 
-171.16029463201386

>  <intra_energy>  (23) 
5.987060361069066

>  <rmsd>  (23) 
11.7823

>  <sdf_rank>  (23) 
0

$$$$

     RDKit          3D

 28 29  0  0  0  0  0  0  0  0999 V2000
   31.5249    1.1816  -14.6578 O   0  0  0  0  0  0  0  0  0  0  0  0
   30.5476    5.0020  -20.2354 O   0  0  0  0  0  0  0  0  0  0  0  0
   29.0419    5.9091  -16.7829 C   0  0  0  0  0  0  0  0  0  0  0  0
   27.8039    6.1442  -16.2142 C   0  0  0  0  0  0  0  0  0  0  0  0
   26.6652    6.1154  -16.9861 C   0  0  0  0  0  0  0  0  0  0  0  0
   26.7534    5.8556  -18.3327 C   0  0  0  0  0  0  0  0  0  0  0  0
   27.9770    5.6003  -18.9220 C   0  0  0  0  0  0  0  0  0  0  0  0
   30.6944    2.4014  -18.9250 C   0  0  0  0  0  0  0  0  0  0  0  0
   31.1084    1.3583  -18.1563 C   0  0  0  0  0  0  0  0  0  0  0  0
   31.5959    1.8993  -16.9141 C   0  0  0  0  0  0  0  0  0  0  0  0
   32.1255    1.1621  -15.7614 C   0  0  0  0  0  0  0  0  0  0  0  0
   33.3179    0.2849  -15.9571 C   0  0  0  0  0  0  0  0  0  0  0  0
   31.4236    3.2630  -16.9912 C   0  0  0  0  0  0  0  0  0  0  0  0
   30.6545    5.1350  -18.8226 S   0  0  2  0  0  0  0  0  0  0  0  0
   31.6763    5.9493  -18.2342 O   0  0  0  0  0  0  0  0  0  0  0  0
   30.8894    3.5776  -18.2192 N   0  0  0  0  0  0  0  0  0  0  0  0
   29.1150    5.6195  -18.1364 C   0  0  0  0  0  0  0  0  0  0  0  0
   29.9548    5.9513  -16.1707 H   0  0  0  0  0  0  0  0  0  0  0  0
   27.7288    6.3557  -15.1373 H   0  0  0  0  0  0  0  0  0  0  0  0
   25.6838    6.3005  -16.5250 H   0  0  0  0  0  0  0  0  0  0  0  0
   25.8412    5.8508  -18.9474 H   0  0  0  0  0  0  0  0  0  0  0  0
   28.0448    5.3853  -19.9986 H   0  0  0  0  0  0  0  0  0  0  0  0
   30.2745    2.3239  -19.9388 H   0  0  0  0  0  0  0  0  0  0  0  0
   31.0765    0.2942  -18.4334 H   0  0  0  0  0  0  0  0  0  0  0  0
   33.7202   -0.0110  -14.9769 H   0  0  0  0  0  0  0  0  0  0  0  0
   33.0238   -0.6137  -16.5192 H   0  0  0  0  0  0  0  0  0  0  0  0
   34.0882    0.8332  -16.5192 H   0  0  0  0  0  0  0  0  0  0  0  0
   31.6728    3.9843  -16.1990 H   0  0  0  0  0  0  0  0  0  0  0  0
  1 11  2  0
  2 14  2  0
  3  4  2  0
  3 17  1  0
  4  5  1  0
  5  6  2  0
  6  7  1  0
  7 17  2  0
  8  9  2  0
  8 16  1  0
  9 10  1  0
 10 11  1  0
 10 13  2  0
 11 12  1  0
 13 16  1  0
 14 15  2  0
 14 16  1  1
 14 17  1  0
  3 18  1  0
  4 19  1  0
  5 20  1  0
  6 21  1  0
  7 22  1  0
  8 23  1  0
  9 24  1  0
 12 25  1  0
 12 26  1  0
 12 27  1  0
 13 28  1  0
M  END
>  <filename_input>  (24) 
8FO5_Y4U_docked.sdf

>  <pdb_id>  (24) 
8FO5_Y4U

>  <pose_rank>  (24) 
23

>  <num_atoms_heavy>  (24) 
17

>  <num_torsions>  (24) 
3

>  <pose>  (24) 
[30.547624831120835, 5.002008313599193, -20.235361412881353, -0.9095710881384921, -2.7497407740718516, 5.083743714822099, -0.25310205803566743, -2.9640306353013015, 0.9517436228765899]

>  <energy>  (24) 
-167.21135509476417

>  <inter_energy>  (24) 
-155.97258680825254

>  <intra_energy>  (24) 
1.6393696290316544

>  <rmsd>  (24) 
12.2478

>  <sdf_rank>  (24) 
0

$$$$

     RDKit          3D

 28 29  0  0  0  0  0  0  0  0999 V2000
   13.2489  -13.6599  -20.0061 O   0  0  0  0  0  0  0  0  0  0  0  0
   18.1110   -9.6770  -19.3161 O   0  0  0  0  0  0  0  0  0  0  0  0
   16.2704   -9.5833  -17.0396 C   0  0  0  0  0  0  0  0  0  0  0  0
   15.5591   -9.4109  -15.8667 C   0  0  0  0  0  0  0  0  0  0  0  0
   15.5115  -10.4141  -14.9262 C   0  0  0  0  0  0  0  0  0  0  0  0
   16.1705  -11.5990  -15.1505 C   0  0  0  0  0  0  0  0  0  0  0  0
   16.9027  -11.7897  -16.3069 C   0  0  0  0  0  0  0  0  0  0  0  0
   17.7383  -12.8726  -20.5332 C   0  0  0  0  0  0  0  0  0  0  0  0
   16.7479  -13.6133  -21.0997 C   0  0  0  0  0  0  0  0  0  0  0  0
   15.4956  -13.1522  -20.5589 C   0  0  0  0  0  0  0  0  0  0  0  0
   14.1476  -13.6317  -20.8839 C   0  0  0  0  0  0  0  0  0  0  0  0
   13.8269  -13.9626  -22.3042 C   0  0  0  0  0  0  0  0  0  0  0  0
   15.8010  -12.1221  -19.6981 C   0  0  0  0  0  0  0  0  0  0  0  0
   18.0096  -10.9219  -18.6343 S   0  0  2  0  0  0  0  0  0  0  0  0
   19.1828  -11.6357  -18.2249 O   0  0  0  0  0  0  0  0  0  0  0  0
   17.1663  -11.9564  -19.6654 N   0  0  0  0  0  0  0  0  0  0  0  0
   16.9547  -10.7716  -17.2414 C   0  0  0  0  0  0  0  0  0  0  0  0
   16.2930   -8.7896  -17.8009 H   0  0  0  0  0  0  0  0  0  0  0  0
   15.0275   -8.4653  -15.6842 H   0  0  0  0  0  0  0  0  0  0  0  0
   14.9458  -10.2676  -13.9942 H   0  0  0  0  0  0  0  0  0  0  0  0
   16.1146  -12.4035  -14.4023 H   0  0  0  0  0  0  0  0  0  0  0  0
   17.4355  -12.7361  -16.4813 H   0  0  0  0  0  0  0  0  0  0  0  0
   18.8147  -12.9828  -20.7311 H   0  0  0  0  0  0  0  0  0  0  0  0
   16.8798  -14.4187  -21.8372 H   0  0  0  0  0  0  0  0  0  0  0  0
   13.0616  -14.7522  -22.3329 H   0  0  0  0  0  0  0  0  0  0  0  0
   13.4464  -13.0646  -22.8130 H   0  0  0  0  0  0  0  0  0  0  0  0
   14.7363  -14.3147  -22.8130 H   0  0  0  0  0  0  0  0  0  0  0  0
   15.0714  -11.5277  -19.1285 H   0  0  0  0  0  0  0  0  0  0  0  0
  1 11  2  0
  2 14  2  0
  3  4  2  0
  3 17  1  0
  4  5  1  0
  5  6  2  0
  6  7  1  0
  7 17  2  0
  8  9  2  0
  8 16  1  0
  9 10  1  0
 10 11  1  0
 10 13  2  0
 11 12  1  0
 13 16  1  0
 14 15  2  0
 14 16  1  6
 14 17  1  0
  3 18  1  0
  4 19  1  0
  5 20  1  0
  6 21  1  0
  7 22  1  0
  8 23  1  0
  9 24  1  0
 12 25  1  0
 12 26  1  0
 12 27  1  0
 13 28  1  0
M  END
>  <filename_input>  (25) 
8FO5_Y4U_docked.sdf

>  <pdb_id>  (25) 
8FO5_Y4U

>  <pose_rank>  (25) 
24

>  <num_atoms_heavy>  (25) 
17

>  <num_torsions>  (25) 
3

>  <pose>  (25) 
[18.11103243088274, -9.676956927848023, -19.316075884041712, 1.2279170272728048, 0.5642566690333672, -0.9060443754331671, 2.9031954849206034, -1.041195598237657, -0.769438264515648]

>  <energy>  (25) 
-156.70005282723017

>  <inter_energy>  (25) 
-136.81639200779605

>  <intra_energy>  (25) 
1.703056995359427

>  <rmsd>  (25) 
11.9813

>  <sdf_rank>  (25) 
0

$$$$

     RDKit          3D

 28 29  0  0  0  0  0  0  0  0999 V2000
   24.9410   -7.8730  -24.1500 O   0  0  0  0  0  0  0  0  0  0  0  0
   23.8210   -2.6260  -25.5180 O   0  0  0  0  0  0  0  0  0  0  0  0
   21.3650   -1.9650  -22.6260 C   0  0  0  0  0  0  0  0  0  0  0  0
   20.0410   -2.1750  -22.2880 C   0  0  0  0  0  0  0  0  0  0  0  0
   19.2190   -2.9090  -23.1120 C   0  0  0  0  0  0  0  0  0  0  0  0
   19.7110   -3.4360  -24.2820 C   0  0  0  0  0  0  0  0  0  0  0  0
   21.0350   -3.2550  -24.6340 C   0  0  0  0  0  0  0  0  0  0  0  0
   24.6290   -3.8010  -22.0150 C   0  0  0  0  0  0  0  0  0  0  0  0
   24.9660   -5.0800  -21.6970 C   0  0  0  0  0  0  0  0  0  0  0  0
   24.7500   -5.8910  -22.8670 C   0  0  0  0  0  0  0  0  0  0  0  0
   24.9930   -7.3300  -23.0180 C   0  0  0  0  0  0  0  0  0  0  0  0
   25.4300   -8.1130  -21.8240 C   0  0  0  0  0  0  0  0  0  0  0  0
   24.3100   -5.0380  -23.8540 C   0  0  0  0  0  0  0  0  0  0  0  0
   23.5750   -2.4240  -24.1310 S   0  0  2  0  0  0  0  0  0  0  0  0
   24.0910   -1.2730  -23.4510 O   0  0  0  0  0  0  0  0  0  0  0  0
   24.2190   -3.7660  -23.3380 N   0  0  0  0  0  0  0  0  0  0  0  0
   21.8570   -2.5260  -23.7940 C   0  0  0  0  0  0  0  0  0  0  0  0
   22.0179   -1.3620  -21.9779 H   0  0  0  0  0  0  0  0  0  0  0  0
   19.6420   -1.7525  -21.3541 H   0  0  0  0  0  0  0  0  0  0  0  0
   18.1676   -3.0740  -22.8341 H   0  0  0  0  0  0  0  0  0  0  0  0
   19.0444   -4.0074  -24.9447 H   0  0  0  0  0  0  0  0  0  0  0  0
   21.4288   -3.6838  -25.5673 H   0  0  0  0  0  0  0  0  0  0  0  0
   24.6745   -2.9378  -21.3347 H   0  0  0  0  0  0  0  0  0  0  0  0
   25.3364   -5.4311  -20.7226 H   0  0  0  0  0  0  0  0  0  0  0  0
   25.1332   -7.5811  -20.9080 H   0  0  0  0  0  0  0  0  0  0  0  0
   24.9551   -9.1050  -21.8422 H   0  0  0  0  0  0  0  0  0  0  0  0
   26.5237   -8.2296  -21.8422 H   0  0  0  0  0  0  0  0  0  0  0  0
   24.0700   -5.3268  -24.8879 H   0  0  0  0  0  0  0  0  0  0  0  0
  1 11  2  0
  2 14  2  0
  3  4  2  0
  3 17  1  0
  4  5  1  0
  5  6  2  0
  6  7  1  0
  7 17  2  0
  8  9  2  0
  8 16  1  0
  9 10  1  0
 10 11  1  0
 10 13  2  0
 11 12  1  0
 13 16  1  0
 14 15  2  0
 14 16  1  1
 14 17  1  0
  3 18  1  0
  4 19  1  0
  5 20  1  0
  6 21  1  0
  7 22  1  0
  8 23  1  0
  9 24  1  0
 12 25  1  0
 12 26  1  0
 12 27  1  0
 13 28  1  0
M  END
>  <filename_input>  (26) 
8FO5_Y4U_docked.sdf

>  <pdb_id>  (26) 
8FO5_Y4U

>  <pose_rank>  (26) 
25

>  <num_atoms_heavy>  (26) 
17

>  <num_torsions>  (26) 
3

>  <pose>  (26) 
[23.821, -2.626, -25.518, 1e-06, 1e-06, 1e-06, 0.0, 0.0, 0.0]

>  <energy>  (26) 
-767.2881594255153

>  <inter_energy>  (26) 
-771.7221324077941

>  <intra_energy>  (26) 
0.0009214714905334843

>  <rmsd>  (26) 
0.0

>  <sdf_rank>  (26) 
0

$$$$
