
     RDKit          3D

 41 43  0  0  0  0  0  0  0  0999 V2000
  -11.5651   17.1932  -32.5642 C   0  0  1  0  0  0  0  0  0  0  0  0
  -11.8569   17.9636  -33.8537 C   0  0  2  0  0  0  0  0  0  0  0  0
  -12.9404   18.9206  -33.3673 C   0  0  2  0  0  0  0  0  0  0  0  0
  -12.5669   20.6687  -31.5665 C   0  0  0  0  0  0  0  0  0  0  0  0
  -11.7290   22.2674  -32.6955 C   0  0  0  0  0  0  0  0  0  0  0  0
  -11.9528   21.2412  -33.5955 C   0  0  0  0  0  0  0  0  0  0  0  0
  -13.7800   19.5784  -28.0802 C   0  0  0  0  0  0  0  0  0  0  0  0
  -13.0148   20.0457  -27.3097 C   0  0  0  0  0  0  0  0  0  0  0  0
  -13.0290   16.8112  -30.4913 C   0  0  0  0  0  0  0  0  0  0  0  0
  -14.7132   19.0355  -29.0693 C   0  0  0  0  0  0  0  0  0  0  0  0
  -11.1675   22.4283  -35.2812 C   0  0  0  0  0  0  0  0  0  0  0  0
  -11.1784   23.4589  -33.2052 C   0  0  0  0  0  0  0  0  0  0  0  0
  -12.9717   17.0365  -31.9828 C   0  0  1  0  0  0  0  0  0  0  0  0
  -12.4942   20.2152  -32.8596 N   0  0  0  0  0  0  0  0  0  0  0  0
  -12.1225   21.8933  -31.4152 N   0  0  0  0  0  0  0  0  0  0  0  0
  -11.6925   21.2634  -34.9163 N   0  0  0  0  0  0  0  0  0  0  0  0
  -10.8978   23.5030  -34.5308 N   0  0  0  0  0  0  0  0  0  0  0  0
  -10.9149   24.5297  -32.4598 N   0  0  0  0  0  0  0  0  0  0  0  0
  -10.9214   15.9499  -32.8196 O   0  0  0  0  0  0  0  0  0  0  0  0
  -13.6563   18.2676  -32.3225 O   0  0  0  0  0  0  0  0  0  0  0  0
  -12.4275   17.0964  -34.8066 O   0  0  0  0  0  0  0  0  0  0  0  0
  -14.2660   16.1621  -30.1292 O   0  0  0  0  0  0  0  0  0  0  0  0
  -13.6809   16.4049  -27.6619 O   0  0  0  0  0  0  0  0  0  0  0  0
  -15.3898   17.8783  -28.6021 O   0  0  0  0  0  0  0  0  0  0  0  0
  -15.9551   15.4762  -28.4384 O   0  0  0  0  0  0  0  0  0  0  0  0
  -14.8016   16.3868  -28.6346 P   0  0  1  0  0  0  0  0  0  0  0  0
  -10.8652   17.6961  -31.8807 H   0  0  0  0  0  0  0  0  0  0  0  0
  -10.9756   18.4320  -34.3163 H   0  0  0  0  0  0  0  0  0  0  0  0
  -13.5411   19.1536  -34.2589 H   0  0  0  0  0  0  0  0  0  0  0  0
  -12.9602   20.0633  -30.7366 H   0  0  0  0  0  0  0  0  0  0  0  0
  -12.3028   20.4805  -26.5929 H   0  0  0  0  0  0  0  0  0  0  0  0
  -12.1837   16.1762  -30.1876 H   0  0  0  0  0  0  0  0  0  0  0  0
  -12.9727   17.7838  -29.9805 H   0  0  0  0  0  0  0  0  0  0  0  0
  -15.4594   19.8069  -29.3106 H   0  0  0  0  0  0  0  0  0  0  0  0
  -14.1292   18.7459  -29.9553 H   0  0  0  0  0  0  0  0  0  0  0  0
  -10.9200   22.5223  -36.3489 H   0  0  0  0  0  0  0  0  0  0  0  0
  -13.4329   16.1311  -32.4043 H   0  0  0  0  0  0  0  0  0  0  0  0
  -10.5114   25.3724  -32.8933 H   0  0  0  0  0  0  0  0  0  0  0  0
  -11.1144   24.5157  -31.4494 H   0  0  0  0  0  0  0  0  0  0  0  0
  -10.6951   15.5128  -31.9607 H   0  0  0  0  0  0  0  0  0  0  0  0
  -12.9081   16.3661  -34.3421 H   0  0  0  0  0  0  0  0  0  0  0  0
  1  2  1  0
  1 13  1  0
  1 19  1  0
  2  3  1  0
  2 21  1  0
  3 14  1  0
  3 20  1  0
  4 14  1  0
  4 15  2  0
  5  6  2  0
  5 12  1  0
  5 15  1  0
  6 14  1  0
  6 16  1  0
  7  8  3  0
  7 10  1  0
 13  9  1  0
  9 22  1  0
 10 24  1  0
 11 16  2  0
 11 17  1  0
 12 17  2  0
 12 18  1  0
 13 20  1  0
 22 26  1  0
 26 23  1  1
 24 26  1  0
 25 26  2  0
  1 27  1  1
  2 28  1  6
  3 29  1  6
  4 30  1  0
  8 31  1  0
  9 32  1  0
  9 33  1  0
 10 34  1  0
 10 35  1  0
 11 36  1  0
 13 37  1  6
 18 38  1  0
 18 39  1  0
 19 40  1  0
 21 41  1  0
M  CHG  1  23  -1
M  END
>  <filename_input>  (1) 
8G0V_YHT_docked.sdf

>  <pdb_id>  (1) 
8G0V_YHT

>  <pose_rank>  (1) 
0

>  <num_atoms_heavy>  (1) 
26

>  <num_torsions>  (1) 
7

>  <pose>  (1) 
[-11.565133349834396, 17.19318734839586, -32.56418952947089, -4.910673934219354, -1.2311577593044847, 3.683677289601853, 0.007643541584534769, 6.770816448238246, -5.748095319448094, 6.476528381092296, 4.287107539850119, 7.118511460164813, 1.4501342955690062]

>  <energy>  (1) 
-949.986245757375

>  <inter_energy>  (1) 
-951.5979909190496

>  <intra_energy>  (1) 
21.058151218444458

>  <rmsd>  (1) 
0.764066

>  <sdf_rank>  (1) 
0

$$$$

     RDKit          3D

 41 43  0  0  0  0  0  0  0  0999 V2000
  -11.4508   17.0512  -32.3867 C   0  0  1  0  0  0  0  0  0  0  0  0
  -11.7483   17.7874  -33.6948 C   0  0  2  0  0  0  0  0  0  0  0  0
  -12.8411   18.7458  -33.2327 C   0  0  2  0  0  0  0  0  0  0  0  0
  -12.4612   20.5306  -31.4696 C   0  0  0  0  0  0  0  0  0  0  0  0
  -11.6755   22.1241  -32.6426 C   0  0  0  0  0  0  0  0  0  0  0  0
  -11.8998   21.0790  -33.5205 C   0  0  0  0  0  0  0  0  0  0  0  0
  -16.3591   15.6432  -28.6933 C   0  0  0  0  0  0  0  0  0  0  0  0
  -16.8051   14.8130  -29.4070 C   0  0  0  0  0  0  0  0  0  0  0  0
  -12.9132   16.7062  -30.3063 C   0  0  0  0  0  0  0  0  0  0  0  0
  -15.7976   16.6345  -27.7736 C   0  0  0  0  0  0  0  0  0  0  0  0
  -11.1710   22.2506  -35.2420 C   0  0  0  0  0  0  0  0  0  0  0  0
  -11.1568   23.3161  -33.1837 C   0  0  0  0  0  0  0  0  0  0  0  0
  -12.8565   16.8957  -31.8029 C   0  0  1  0  0  0  0  0  0  0  0  0
  -12.4074   20.0565  -32.7562 N   0  0  0  0  0  0  0  0  0  0  0  0
  -12.0355   21.7652  -31.3482 N   0  0  0  0  0  0  0  0  0  0  0  0
  -11.6675   21.0831  -34.8467 N   0  0  0  0  0  0  0  0  0  0  0  0
  -10.9049   23.3425  -34.5155 N   0  0  0  0  0  0  0  0  0  0  0  0
  -10.8968   24.4040  -32.4620 N   0  0  0  0  0  0  0  0  0  0  0  0
  -10.7954   15.8081  -32.6113 O   0  0  0  0  0  0  0  0  0  0  0  0
  -13.5520   18.1118  -32.1729 O   0  0  0  0  0  0  0  0  0  0  0  0
  -12.3099   16.8921  -34.6268 O   0  0  0  0  0  0  0  0  0  0  0  0
  -12.7696   17.9753  -29.6343 O   0  0  0  0  0  0  0  0  0  0  0  0
  -14.9579   19.0807  -28.9428 O   0  0  0  0  0  0  0  0  0  0  0  0
  -14.4211   16.8836  -28.0154 O   0  0  0  0  0  0  0  0  0  0  0  0
  -13.0033   18.7766  -27.2922 O   0  0  0  0  0  0  0  0  0  0  0  0
  -13.7990   18.2971  -28.4477 P   0  0  1  0  0  0  0  0  0  0  0  0
  -10.7563   17.5771  -31.7150 H   0  0  0  0  0  0  0  0  0  0  0  0
  -10.8710   18.2525  -34.1679 H   0  0  0  0  0  0  0  0  0  0  0  0
  -13.4430   18.9515  -34.1301 H   0  0  0  0  0  0  0  0  0  0  0  0
  -12.8262   19.9327  -30.6216 H   0  0  0  0  0  0  0  0  0  0  0  0
  -17.2201   14.0405  -30.0711 H   0  0  0  0  0  0  0  0  0  0  0  0
  -13.8805   16.2588  -30.0337 H   0  0  0  0  0  0  0  0  0  0  0  0
  -12.0910   16.0436  -29.9984 H   0  0  0  0  0  0  0  0  0  0  0  0
  -16.3522   17.5773  -27.8898 H   0  0  0  0  0  0  0  0  0  0  0  0
  -15.8900   16.2334  -26.7535 H   0  0  0  0  0  0  0  0  0  0  0  0
  -10.9476   22.3307  -36.3161 H   0  0  0  0  0  0  0  0  0  0  0  0
  -13.3089   15.9761  -32.2026 H   0  0  0  0  0  0  0  0  0  0  0  0
  -10.5175   25.2460  -32.9180 H   0  0  0  0  0  0  0  0  0  0  0  0
  -11.0750   24.4037  -31.4475 H   0  0  0  0  0  0  0  0  0  0  0  0
  -10.5747   15.3896  -31.7417 H   0  0  0  0  0  0  0  0  0  0  0  0
  -12.7695   16.1594  -34.1450 H   0  0  0  0  0  0  0  0  0  0  0  0
  1  2  1  0
  1 13  1  0
  1 19  1  0
  2  3  1  0
  2 21  1  0
  3 14  1  0
  3 20  1  0
  4 14  1  0
  4 15  2  0
  5  6  2  0
  5 12  1  0
  5 15  1  0
  6 14  1  0
  6 16  1  0
  7  8  3  0
  7 10  1  0
 13  9  1  0
  9 22  1  0
 10 24  1  0
 11 16  2  0
 11 17  1  0
 12 17  2  0
 12 18  1  0
 13 20  1  0
 22 26  1  0
 26 23  1  6
 24 26  1  0
 25 26  2  0
  1 27  1  1
  2 28  1  6
  3 29  1  6
  4 30  1  0
  8 31  1  0
  9 32  1  0
  9 33  1  0
 10 34  1  0
 10 35  1  0
 11 36  1  0
 13 37  1  6
 18 38  1  0
 18 39  1  0
 19 40  1  0
 21 41  1  0
M  CHG  1  23  -1
M  END
>  <filename_input>  (2) 
8G0V_YHT_docked.sdf

>  <pdb_id>  (2) 
8G0V_YHT

>  <pose_rank>  (2) 
1

>  <num_atoms_heavy>  (2) 
26

>  <num_torsions>  (2) 
7

>  <pose>  (2) 
[-11.450816675502493, 17.051236894944786, -32.386700984849405, -5.057618568849451, 2.4567942253955257, -2.82331096245269, 18.88182526404739, -7.945408471935435, -0.7188517598562065, -0.7932151239775035, 2.797235862791061, -1.94479391127249, 0.02057235876776602]

>  <energy>  (2) 
-867.1786161641164

>  <inter_energy>  (2) 
-866.0971134281335

>  <intra_energy>  (2) 
7.804277596300516

>  <rmsd>  (2) 
2.26305

>  <sdf_rank>  (2) 
0

$$$$

     RDKit          3D

 41 43  0  0  0  0  0  0  0  0999 V2000
  -11.3625   17.8937  -32.1865 C   0  0  1  0  0  0  0  0  0  0  0  0
  -11.6015   18.4926  -33.5742 C   0  0  2  0  0  0  0  0  0  0  0  0
  -12.6341   19.5644  -33.2409 C   0  0  2  0  0  0  0  0  0  0  0  0
  -12.0773   21.4778  -31.6700 C   0  0  0  0  0  0  0  0  0  0  0  0
  -11.3030   22.9262  -33.0247 C   0  0  0  0  0  0  0  0  0  0  0  0
  -11.6214   21.8193  -33.7907 C   0  0  0  0  0  0  0  0  0  0  0  0
  -13.6392   13.0057  -31.0282 C   0  0  0  0  0  0  0  0  0  0  0  0
  -13.9951   12.4923  -32.0318 C   0  0  0  0  0  0  0  0  0  0  0  0
  -12.8608   17.8816  -30.1032 C   0  0  0  0  0  0  0  0  0  0  0  0
  -13.2401   13.6213  -29.7610 C   0  0  0  0  0  0  0  0  0  0  0  0
  -10.9538   22.8025  -35.6496 C   0  0  0  0  0  0  0  0  0  0  0  0
  -10.7720   24.0421  -33.6996 C   0  0  0  0  0  0  0  0  0  0  0  0
  -12.7799   17.8947  -31.6105 C   0  0  1  0  0  0  0  0  0  0  0  0
  -12.1210   20.8911  -32.9098 N   0  0  0  0  0  0  0  0  0  0  0  0
  -11.5969   22.6981  -31.6847 N   0  0  0  0  0  0  0  0  0  0  0  0
  -11.4707   21.6973  -35.1230 N   0  0  0  0  0  0  0  0  0  0  0  0
  -10.6011   23.9407  -35.0406 N   0  0  0  0  0  0  0  0  0  0  0  0
  -10.4258   25.1761  -33.0947 N   0  0  0  0  0  0  0  0  0  0  0  0
  -10.7864   16.5943  -32.2583 O   0  0  0  0  0  0  0  0  0  0  0  0
  -13.3929   19.1018  -32.1270 O   0  0  0  0  0  0  0  0  0  0  0  0
  -12.2118   17.5337  -34.4069 O   0  0  0  0  0  0  0  0  0  0  0  0
  -12.9581   16.5259  -29.6178 O   0  0  0  0  0  0  0  0  0  0  0  0
  -15.3708   16.2154  -30.3736 O   0  0  0  0  0  0  0  0  0  0  0  0
  -14.2834   14.3842  -29.1738 O   0  0  0  0  0  0  0  0  0  0  0  0
  -14.7407   16.4457  -27.8862 O   0  0  0  0  0  0  0  0  0  0  0  0
  -14.4220   15.9797  -29.2572 P   0  0  1  0  0  0  0  0  0  0  0  0
  -10.6411   18.4482  -31.5683 H   0  0  0  0  0  0  0  0  0  0  0  0
  -10.6922   18.8445  -34.0836 H   0  0  0  0  0  0  0  0  0  0  0  0
  -13.2143   19.7036  -34.1650 H   0  0  0  0  0  0  0  0  0  0  0  0
  -12.4130   20.9731  -30.7521 H   0  0  0  0  0  0  0  0  0  0  0  0
  -14.3263   12.0147  -32.9657 H   0  0  0  0  0  0  0  0  0  0  0  0
  -11.9575   18.3517  -29.6873 H   0  0  0  0  0  0  0  0  0  0  0  0
  -13.7553   18.4391  -29.7883 H   0  0  0  0  0  0  0  0  0  0  0  0
  -12.9471   12.8262  -29.0597 H   0  0  0  0  0  0  0  0  0  0  0  0
  -12.4041   14.3047  -29.9707 H   0  0  0  0  0  0  0  0  0  0  0  0
  -10.7936   22.7784  -36.7375 H   0  0  0  0  0  0  0  0  0  0  0  0
  -13.2872   16.9657  -31.9100 H   0  0  0  0  0  0  0  0  0  0  0  0
  -10.0423   25.9574  -33.6456 H   0  0  0  0  0  0  0  0  0  0  0  0
  -10.5415   25.2724  -32.0757 H   0  0  0  0  0  0  0  0  0  0  0  0
  -10.6338   16.2500  -31.3428 H   0  0  0  0  0  0  0  0  0  0  0  0
  -12.6510   16.8438  -33.8490 H   0  0  0  0  0  0  0  0  0  0  0  0
  1  2  1  0
  1 13  1  0
  1 19  1  0
  2  3  1  0
  2 21  1  0
  3 14  1  0
  3 20  1  0
  4 14  1  0
  4 15  2  0
  5  6  2  0
  5 12  1  0
  5 15  1  0
  6 14  1  0
  6 16  1  0
  7  8  3  0
  7 10  1  0
 13  9  1  0
  9 22  1  0
 10 24  1  0
 11 16  2  0
 11 17  1  0
 12 17  2  0
 12 18  1  0
 13 20  1  0
 22 26  1  0
 26 23  1  6
 24 26  1  0
 25 26  2  0
  1 27  1  1
  2 28  1  6
  3 29  1  6
  4 30  1  0
  8 31  1  0
  9 32  1  0
  9 33  1  0
 10 34  1  0
 10 35  1  0
 11 36  1  0
 13 37  1  6
 18 38  1  0
 18 39  1  0
 19 40  1  0
 21 41  1  0
M  CHG  1  23  -1
M  END
>  <filename_input>  (3) 
8G0V_YHT_docked.sdf

>  <pdb_id>  (3) 
8G0V_YHT

>  <pose_rank>  (3) 
2

>  <num_atoms_heavy>  (3) 
26

>  <num_torsions>  (3) 
7

>  <pose>  (3) 
[-11.362459892991557, 17.89370480176717, -32.18650796164455, -0.1211052843375133, -0.008427954978222865, -0.06783774099818118, 0.1109482441653344, 1.610503142885076, 1.5226608244780189, 1.7452745736796116, -1.4822787659470797, 0.5358729768346517, -2.551925386306255]

>  <energy>  (3) 
-835.1053067190263

>  <inter_energy>  (3) 
-824.0622045665941

>  <intra_energy>  (3) 
3.840721315404303

>  <rmsd>  (3) 
2.94822

>  <sdf_rank>  (3) 
0

$$$$

     RDKit          3D

 41 43  0  0  0  0  0  0  0  0999 V2000
  -11.5078   17.1289  -32.3980 C   0  0  1  0  0  0  0  0  0  0  0  0
  -11.8446   17.8852  -33.6849 C   0  0  2  0  0  0  0  0  0  0  0  0
  -12.9284   18.8304  -33.1769 C   0  0  2  0  0  0  0  0  0  0  0  0
  -12.5986   20.6251  -31.4137 C   0  0  0  0  0  0  0  0  0  0  0  0
  -11.7098   22.1849  -32.5582 C   0  0  0  0  0  0  0  0  0  0  0  0
  -11.9131   21.1358  -33.4364 C   0  0  0  0  0  0  0  0  0  0  0  0
  -17.6659   15.5327  -29.4242 C   0  0  0  0  0  0  0  0  0  0  0  0
  -18.7325   15.3205  -29.8875 C   0  0  0  0  0  0  0  0  0  0  0  0
  -12.9106   16.7422  -30.2842 C   0  0  0  0  0  0  0  0  0  0  0  0
  -16.3322   15.8220  -28.8935 C   0  0  0  0  0  0  0  0  0  0  0  0
  -11.0623   22.2690  -35.1274 C   0  0  0  0  0  0  0  0  0  0  0  0
  -11.1321   23.3572  -33.0821 C   0  0  0  0  0  0  0  0  0  0  0  0
  -12.8961   16.9568  -31.7784 C   0  0  1  0  0  0  0  0  0  0  0  0
  -12.4875   20.1351  -32.6907 N   0  0  0  0  0  0  0  0  0  0  0  0
  -12.1484   21.8499  -31.2817 N   0  0  0  0  0  0  0  0  0  0  0  0
  -11.6094   21.1190  -34.7479 N   0  0  0  0  0  0  0  0  0  0  0  0
  -10.8078   23.3620  -34.3984 N   0  0  0  0  0  0  0  0  0  0  0  0
  -10.8836   24.4463  -32.3583 N   0  0  0  0  0  0  0  0  0  0  0  0
  -10.8533   15.8929  -32.6614 O   0  0  0  0  0  0  0  0  0  0  0  0
  -13.6069   18.1755  -32.1087 O   0  0  0  0  0  0  0  0  0  0  0  0
  -12.4277   17.0027  -34.6159 O   0  0  0  0  0  0  0  0  0  0  0  0
  -12.7551   15.3406  -29.9772 O   0  0  0  0  0  0  0  0  0  0  0  0
  -14.1083   14.2691  -28.1039 O   0  0  0  0  0  0  0  0  0  0  0  0
  -15.3007   15.5311  -29.8246 O   0  0  0  0  0  0  0  0  0  0  0  0
  -14.2297   13.4172  -30.5323 O   0  0  0  0  0  0  0  0  0  0  0  0
  -14.0754   14.5298  -29.5645 P   0  0  1  0  0  0  0  0  0  0  0  0
  -10.7973   17.6469  -31.7370 H   0  0  0  0  0  0  0  0  0  0  0  0
  -10.9827   18.3624  -34.1742 H   0  0  0  0  0  0  0  0  0  0  0  0
  -13.5558   19.0481  -34.0538 H   0  0  0  0  0  0  0  0  0  0  0  0
  -13.0242   20.0462  -30.5808 H   0  0  0  0  0  0  0  0  0  0  0  0
  -19.7251   15.1231  -30.3187 H   0  0  0  0  0  0  0  0  0  0  0  0
  -12.0840   17.3072  -29.8286 H   0  0  0  0  0  0  0  0  0  0  0  0
  -13.8730   17.0916  -29.8822 H   0  0  0  0  0  0  0  0  0  0  0  0
  -16.2806   16.8892  -28.6322 H   0  0  0  0  0  0  0  0  0  0  0  0
  -16.1772   15.1814  -28.0128 H   0  0  0  0  0  0  0  0  0  0  0  0
  -10.7791   22.3312  -36.1885 H   0  0  0  0  0  0  0  0  0  0  0  0
  -13.3552   16.0418  -32.1808 H   0  0  0  0  0  0  0  0  0  0  0  0
  -10.4585   25.2733  -32.8014 H   0  0  0  0  0  0  0  0  0  0  0  0
  -11.1163   24.4620  -31.3550 H   0  0  0  0  0  0  0  0  0  0  0  0
  -10.6207   15.4536  -31.8052 H   0  0  0  0  0  0  0  0  0  0  0  0
  -12.9043   16.2816  -34.1333 H   0  0  0  0  0  0  0  0  0  0  0  0
  1  2  1  0
  1 13  1  0
  1 19  1  0
  2  3  1  0
  2 21  1  0
  3 14  1  0
  3 20  1  0
  4 14  1  0
  4 15  2  0
  5  6  2  0
  5 12  1  0
  5 15  1  0
  6 14  1  0
  6 16  1  0
  7  8  3  0
  7 10  1  0
 13  9  1  0
  9 22  1  0
 10 24  1  0
 11 16  2  0
 11 17  1  0
 12 17  2  0
 12 18  1  0
 13 20  1  0
 22 26  1  0
 26 23  1  1
 24 26  1  0
 25 26  2  0
  1 27  1  1
  2 28  1  6
  3 29  1  6
  4 30  1  0
  8 31  1  0
  9 32  1  0
  9 33  1  0
 10 34  1  0
 10 35  1  0
 11 36  1  0
 13 37  1  6
 18 38  1  0
 18 39  1  0
 19 40  1  0
 21 41  1  0
M  CHG  1  23  -1
M  END
>  <filename_input>  (4) 
8G0V_YHT_docked.sdf

>  <pdb_id>  (4) 
8G0V_YHT

>  <pose_rank>  (4) 
3

>  <num_atoms_heavy>  (4) 
26

>  <num_torsions>  (4) 
7

>  <pose>  (4) 
[-11.507750797605729, 17.128893772291256, -32.398016343125946, -1.8703110363921076, -5.961668588389232, -0.17869301805382481, -0.05916386801646118, -23.41509580208145, 7.734995539640826, -13.538747150936956, 2.883393583992896, 0.13225300319737154, -2.4912169185764417]

>  <energy>  (4) 
-830.6174185800561

>  <inter_energy>  (4) 
-835.9459250944386

>  <intra_energy>  (4) 
3.99679894842088

>  <rmsd>  (4) 
2.72183

>  <sdf_rank>  (4) 
0

$$$$

     RDKit          3D

 41 43  0  0  0  0  0  0  0  0999 V2000
  -12.1358   16.9753  -32.9765 C   0  0  1  0  0  0  0  0  0  0  0  0
  -12.2606   17.3349  -34.4586 C   0  0  2  0  0  0  0  0  0  0  0  0
  -13.2171   18.5201  -34.3780 C   0  0  2  0  0  0  0  0  0  0  0  0
  -12.1010   20.6220  -35.2583 C   0  0  0  0  0  0  0  0  0  0  0  0
  -11.7772   21.7144  -33.4598 C   0  0  0  0  0  0  0  0  0  0  0  0
  -12.4102   20.5428  -33.0857 C   0  0  0  0  0  0  0  0  0  0  0  0
  -13.3984   19.5758  -27.5376 C   0  0  0  0  0  0  0  0  0  0  0  0
  -12.8017   20.5546  -27.8266 C   0  0  0  0  0  0  0  0  0  0  0  0
  -13.7256   17.4394  -31.0161 C   0  0  0  0  0  0  0  0  0  0  0  0
  -14.1766   18.3936  -27.1626 C   0  0  0  0  0  0  0  0  0  0  0  0
  -12.3910   21.1082  -30.9532 C   0  0  0  0  0  0  0  0  0  0  0  0
  -11.4420   22.6183  -32.4335 C   0  0  0  0  0  0  0  0  0  0  0  0
  -13.5738   17.1799  -32.4954 C   0  0  1  0  0  0  0  0  0  0  0  0
  -12.6140   19.8441  -34.2509 N   0  0  0  0  0  0  0  0  0  0  0  0
  -11.5864   21.7523  -34.8368 N   0  0  0  0  0  0  0  0  0  0  0  0
  -12.7446   20.1778  -31.8336 N   0  0  0  0  0  0  0  0  0  0  0  0
  -11.7770   22.2783  -31.1647 N   0  0  0  0  0  0  0  0  0  0  0  0
  -10.8267   23.7799  -32.6431 N   0  0  0  0  0  0  0  0  0  0  0  0
  -11.6645   15.6457  -32.7880 O   0  0  0  0  0  0  0  0  0  0  0  0
  -14.0620   18.3175  -33.2486 O   0  0  0  0  0  0  0  0  0  0  0  0
  -12.9074   16.2902  -35.1483 O   0  0  0  0  0  0  0  0  0  0  0  0
  -14.4342   16.3514  -30.3861 O   0  0  0  0  0  0  0  0  0  0  0  0
  -15.4820   15.3888  -28.2733 O   0  0  0  0  0  0  0  0  0  0  0  0
  -13.9844   17.3086  -28.0577 O   0  0  0  0  0  0  0  0  0  0  0  0
  -16.1466   17.7021  -29.1921 O   0  0  0  0  0  0  0  0  0  0  0  0
  -15.1262   16.6494  -28.9707 P   0  0  1  0  0  0  0  0  0  0  0  0
  -11.4013   17.5771  -32.4212 H   0  0  0  0  0  0  0  0  0  0  0  0
  -11.3030   17.5249  -34.9655 H   0  0  0  0  0  0  0  0  0  0  0  0
  -13.7405   18.5350  -35.3455 H   0  0  0  0  0  0  0  0  0  0  0  0
  -12.1197   20.3260  -36.3175 H   0  0  0  0  0  0  0  0  0  0  0  0
  -12.2465   21.4653  -28.0956 H   0  0  0  0  0  0  0  0  0  0  0  0
  -12.7289   17.5353  -30.5606 H   0  0  0  0  0  0  0  0  0  0  0  0
  -14.2967   18.3686  -30.8729 H   0  0  0  0  0  0  0  0  0  0  0  0
  -13.8725   18.0767  -26.1541 H   0  0  0  0  0  0  0  0  0  0  0  0
  -15.2408   18.6699  -27.1967 H   0  0  0  0  0  0  0  0  0  0  0  0
  -12.6373   20.8856  -29.9046 H   0  0  0  0  0  0  0  0  0  0  0  0
  -14.1403   16.2514  -32.6599 H   0  0  0  0  0  0  0  0  0  0  0  0
  -10.6087   24.3979  -31.8485 H   0  0  0  0  0  0  0  0  0  0  0  0
  -10.5687   24.0607  -33.5999 H   0  0  0  0  0  0  0  0  0  0  0  0
  -11.5965   15.4539  -31.8192 H   0  0  0  0  0  0  0  0  0  0  0  0
  -13.2994   15.6571  -34.4958 H   0  0  0  0  0  0  0  0  0  0  0  0
  1  2  1  0
  1 13  1  0
  1 19  1  0
  2  3  1  0
  2 21  1  0
  3 14  1  0
  3 20  1  0
  4 14  1  0
  4 15  2  0
  5  6  2  0
  5 12  1  0
  5 15  1  0
  6 14  1  0
  6 16  1  0
  7  8  3  0
  7 10  1  0
 13  9  1  0
  9 22  1  0
 10 24  1  0
 11 16  2  0
 11 17  1  0
 12 17  2  0
 12 18  1  0
 13 20  1  0
 22 26  1  0
 26 23  1  1
 24 26  1  0
 25 26  2  0
  1 27  1  1
  2 28  1  6
  3 29  1  6
  4 30  1  0
  8 31  1  0
  9 32  1  0
  9 33  1  0
 10 34  1  0
 10 35  1  0
 11 36  1  0
 13 37  1  6
 18 38  1  0
 18 39  1  0
 19 40  1  0
 21 41  1  0
M  CHG  1  23  -1
M  END
>  <filename_input>  (5) 
8G0V_YHT_docked.sdf

>  <pdb_id>  (5) 
8G0V_YHT

>  <pose_rank>  (5) 
4

>  <num_atoms_heavy>  (5) 
26

>  <num_torsions>  (5) 
7

>  <pose>  (5) 
[-12.135843114686658, 16.975264025896358, -32.97646695740046, 5.2266249499106925, 1.1213329474789993, 2.605869673551245, 3.396175934203826, -17.616345556185195, 0.44982228771185945, -14.575600241610935, -4.97189284812056, 0.23461167728967725, 0.8888762164397589]

>  <energy>  (5) 
-698.2824639979044

>  <inter_energy>  (5) 
-745.2771930782985

>  <intra_energy>  (5) 
57.06466269904378

>  <rmsd>  (5) 
2.01256

>  <sdf_rank>  (5) 
0

$$$$

     RDKit          3D

 41 43  0  0  0  0  0  0  0  0999 V2000
  -11.9974   17.0579  -33.0038 C   0  0  1  0  0  0  0  0  0  0  0  0
  -12.7359   17.6115  -34.2243 C   0  0  2  0  0  0  0  0  0  0  0  0
  -13.4003   18.8411  -33.6138 C   0  0  2  0  0  0  0  0  0  0  0  0
  -12.0171   20.6278  -34.7684 C   0  0  0  0  0  0  0  0  0  0  0  0
  -11.6233   21.9645  -33.1588 C   0  0  0  0  0  0  0  0  0  0  0  0
  -12.4014   20.9502  -32.6306 C   0  0  0  0  0  0  0  0  0  0  0  0
  -17.5073   15.6435  -30.2956 C   0  0  0  0  0  0  0  0  0  0  0  0
  -18.5895   15.3368  -29.9320 C   0  0  0  0  0  0  0  0  0  0  0  0
  -12.4562   17.3789  -30.4994 C   0  0  0  0  0  0  0  0  0  0  0  0
  -16.1504   15.9751  -30.7347 C   0  0  0  0  0  0  0  0  0  0  0  0
  -12.3825   21.8608  -30.6211 C   0  0  0  0  0  0  0  0  0  0  0  0
  -11.2161   22.9853  -32.2786 C   0  0  0  0  0  0  0  0  0  0  0  0
  -13.0243   17.3001  -31.8957 C   0  0  1  0  0  0  0  0  0  0  0  0
  -12.6495   20.0924  -33.6746 N   0  0  0  0  0  0  0  0  0  0  0  0
  -11.3862   21.7487  -34.5120 N   0  0  0  0  0  0  0  0  0  0  0  0
  -12.8156   20.8406  -31.3542 N   0  0  0  0  0  0  0  0  0  0  0  0
  -11.6285   22.9031  -30.9898 N   0  0  0  0  0  0  0  0  0  0  0  0
  -10.4619   24.0194  -32.6440 N   0  0  0  0  0  0  0  0  0  0  0  0
  -11.6570   15.6853  -33.1636 O   0  0  0  0  0  0  0  0  0  0  0  0
  -13.6589   18.5561  -32.2418 O   0  0  0  0  0  0  0  0  0  0  0  0
  -13.7464   16.7114  -34.6170 O   0  0  0  0  0  0  0  0  0  0  0  0
  -13.3527   16.7536  -29.5571 O   0  0  0  0  0  0  0  0  0  0  0  0
  -14.4448   19.0307  -29.2240 O   0  0  0  0  0  0  0  0  0  0  0  0
  -15.7416   17.2671  -30.3118 O   0  0  0  0  0  0  0  0  0  0  0  0
  -15.2118   16.9470  -27.9174 O   0  0  0  0  0  0  0  0  0  0  0  0
  -14.6745   17.5663  -29.1527 P   0  0  1  0  0  0  0  0  0  0  0  0
  -11.0241   17.5308  -32.8062 H   0  0  0  0  0  0  0  0  0  0  0  0
  -12.0971   17.7968  -35.1005 H   0  0  0  0  0  0  0  0  0  0  0  0
  -14.2992   19.0161  -34.2232 H   0  0  0  0  0  0  0  0  0  0  0  0
  -12.0373   20.1616  -35.7645 H   0  0  0  0  0  0  0  0  0  0  0  0
  -19.5965   15.0515  -29.5937 H   0  0  0  0  0  0  0  0  0  0  0  0
  -11.4850   16.8630  -30.4733 H   0  0  0  0  0  0  0  0  0  0  0  0
  -12.3291   18.4363  -30.2243 H   0  0  0  0  0  0  0  0  0  0  0  0
  -15.4540   15.2315  -30.3197 H   0  0  0  0  0  0  0  0  0  0  0  0
  -16.1440   15.9663  -31.8346 H   0  0  0  0  0  0  0  0  0  0  0  0
  -12.6862   21.8466  -29.5640 H   0  0  0  0  0  0  0  0  0  0  0  0
  -13.7117   16.4425  -31.8529 H   0  0  0  0  0  0  0  0  0  0  0  0
  -10.1976   24.7343  -31.9512 H   0  0  0  0  0  0  0  0  0  0  0  0
  -10.1427   24.1047  -33.6195 H   0  0  0  0  0  0  0  0  0  0  0  0
  -11.5528   15.2653  -32.2732 H   0  0  0  0  0  0  0  0  0  0  0  0
  -14.1772   16.3276  -33.8125 H   0  0  0  0  0  0  0  0  0  0  0  0
  1  2  1  0
  1 13  1  0
  1 19  1  0
  2  3  1  0
  2 21  1  0
  3 14  1  0
  3 20  1  0
  4 14  1  0
  4 15  2  0
  5  6  2  0
  5 12  1  0
  5 15  1  0
  6 14  1  0
  6 16  1  0
  7  8  3  0
  7 10  1  0
 13  9  1  0
  9 22  1  0
 10 24  1  0
 11 16  2  0
 11 17  1  0
 12 17  2  0
 12 18  1  0
 13 20  1  0
 22 26  1  0
 26 23  1  1
 24 26  1  0
 25 26  2  0
  1 27  1  1
  2 28  1  6
  3 29  1  6
  4 30  1  0
  8 31  1  0
  9 32  1  0
  9 33  1  0
 10 34  1  0
 10 35  1  0
 11 36  1  0
 13 37  1  1
 18 38  1  0
 18 39  1  0
 19 40  1  0
 21 41  1  0
M  CHG  1  23  -1
M  END
>  <filename_input>  (6) 
8G0V_YHT_docked.sdf

>  <pdb_id>  (6) 
8G0V_YHT

>  <pose_rank>  (6) 
5

>  <num_atoms_heavy>  (6) 
26

>  <num_torsions>  (6) 
7

>  <pose>  (6) 
[-11.997389785237361, 17.057910001733607, -33.00380395795912, 2.4513907774308246, -4.838671540944519, 1.9595006468666363, -3.474797328288578, 0.7418180881777807, 1.9178896714240228, 0.337635154321712, -6.459111897584214, 4.145743624046921, 2.2283001112562997]

>  <energy>  (6) 
-720.5347135409806

>  <inter_energy>  (6) 
-758.0569636779211

>  <intra_energy>  (6) 
44.65853145410193

>  <rmsd>  (6) 
3.15042

>  <sdf_rank>  (6) 
0

$$$$

     RDKit          3D

 41 43  0  0  0  0  0  0  0  0999 V2000
  -14.8575   18.6854  -30.4830 C   0  0  1  0  0  0  0  0  0  0  0  0
  -13.7485   19.6298  -30.9520 C   0  0  2  0  0  0  0  0  0  0  0  0
  -12.8123   18.6407  -31.6386 C   0  0  2  0  0  0  0  0  0  0  0  0
  -13.5535   17.2894  -33.6543 C   0  0  0  0  0  0  0  0  0  0  0  0
  -13.0583   18.6062  -35.2522 C   0  0  0  0  0  0  0  0  0  0  0  0
  -12.7076   19.2685  -34.0896 C   0  0  0  0  0  0  0  0  0  0  0  0
  -19.3472   15.0220  -30.3466 C   0  0  0  0  0  0  0  0  0  0  0  0
  -19.9484   14.7285  -31.3212 C   0  0  0  0  0  0  0  0  0  0  0  0
  -14.8033   16.1619  -30.0199 C   0  0  0  0  0  0  0  0  0  0  0  0
  -18.5878   15.3358  -29.1347 C   0  0  0  0  0  0  0  0  0  0  0  0
  -11.9907   21.0321  -35.2046 C   0  0  0  0  0  0  0  0  0  0  0  0
  -12.8183   19.2742  -36.4683 C   0  0  0  0  0  0  0  0  0  0  0  0
  -14.0462   17.4678  -30.0357 C   0  0  1  0  0  0  0  0  0  0  0  0
  -13.0290   18.4120  -33.0647 N   0  0  0  0  0  0  0  0  0  0  0  0
  -13.5915   17.3547  -34.9636 N   0  0  0  0  0  0  0  0  0  0  0  0
  -12.1609   20.4957  -34.0008 N   0  0  0  0  0  0  0  0  0  0  0  0
  -12.2775   20.5157  -36.4053 N   0  0  0  0  0  0  0  0  0  0  0  0
  -13.0988   18.7586  -37.6630 N   0  0  0  0  0  0  0  0  0  0  0  0
  -15.6370   19.2556  -29.4378 O   0  0  0  0  0  0  0  0  0  0  0  0
  -12.9440   17.3877  -30.9729 O   0  0  0  0  0  0  0  0  0  0  0  0
  -13.0802   20.1695  -29.8350 O   0  0  0  0  0  0  0  0  0  0  0  0
  -15.7338   16.1349  -28.9170 O   0  0  0  0  0  0  0  0  0  0  0  0
  -16.2627   14.7629  -26.8370 O   0  0  0  0  0  0  0  0  0  0  0  0
  -17.5845   14.3710  -28.8556 O   0  0  0  0  0  0  0  0  0  0  0  0
  -15.2038   13.7057  -28.9343 O   0  0  0  0  0  0  0  0  0  0  0  0
  -16.1119   14.6989  -28.3119 P   0  0  1  0  0  0  0  0  0  0  0  0
  -15.6101   18.4493  -31.2497 H   0  0  0  0  0  0  0  0  0  0  0  0
  -14.0948   20.4709  -31.5704 H   0  0  0  0  0  0  0  0  0  0  0  0
  -11.8124   19.0940  -31.5694 H   0  0  0  0  0  0  0  0  0  0  0  0
  -13.9080   16.4184  -33.0836 H   0  0  0  0  0  0  0  0  0  0  0  0
  -20.5077   14.4553  -32.2282 H   0  0  0  0  0  0  0  0  0  0  0  0
  -15.3568   16.0521  -30.9642 H   0  0  0  0  0  0  0  0  0  0  0  0
  -14.0874   15.3349  -29.9039 H   0  0  0  0  0  0  0  0  0  0  0  0
  -18.1074   16.3169  -29.2637 H   0  0  0  0  0  0  0  0  0  0  0  0
  -19.2928   15.3380  -28.2902 H   0  0  0  0  0  0  0  0  0  0  0  0
  -11.5531   22.0412  -35.2155 H   0  0  0  0  0  0  0  0  0  0  0  0
  -13.7405   17.6081  -28.9884 H   0  0  0  0  0  0  0  0  0  0  0  0
  -12.8989   19.2988  -38.5168 H   0  0  0  0  0  0  0  0  0  0  0  0
  -13.5157   17.8194  -37.7335 H   0  0  0  0  0  0  0  0  0  0  0  0
  -15.2645   18.9831  -28.5619 H   0  0  0  0  0  0  0  0  0  0  0  0
  -13.4992   19.8311  -29.0044 H   0  0  0  0  0  0  0  0  0  0  0  0
  1  2  1  0
  1 13  1  0
  1 19  1  0
  2  3  1  0
  2 21  1  0
  3 14  1  0
  3 20  1  0
  4 14  1  0
  4 15  2  0
  5  6  2  0
  5 12  1  0
  5 15  1  0
  6 14  1  0
  6 16  1  0
  7  8  3  0
  7 10  1  0
 13  9  1  0
  9 22  1  0
 10 24  1  0
 11 16  2  0
 11 17  1  0
 12 17  2  0
 12 18  1  0
 13 20  1  0
 22 26  1  0
 26 23  1  1
 24 26  1  0
 25 26  2  0
  1 27  1  6
  2 28  1  6
  3 29  1  6
  4 30  1  0
  8 31  1  0
  9 32  1  0
  9 33  1  0
 10 34  1  0
 10 35  1  0
 11 36  1  0
 13 37  1  1
 18 38  1  0
 18 39  1  0
 19 40  1  0
 21 41  1  0
M  CHG  1  23  -1
M  END
>  <filename_input>  (7) 
8G0V_YHT_docked.sdf

>  <pdb_id>  (7) 
8G0V_YHT

>  <pose_rank>  (7) 
6

>  <num_atoms_heavy>  (7) 
26

>  <num_torsions>  (7) 
7

>  <pose>  (7) 
[-14.857481653887739, 18.685436265768832, -30.483025109314617, -0.8639738936420603, -2.0624711406608007, 1.9484672074835618, 0.09181422340941164, 45.9414847906615, 25.710413525477424, 41.04664564226913, 10.894176427303009, -7.8419780490625755, -1.2651900222844905]

>  <energy>  (7) 
-501.9517440972049

>  <inter_energy>  (7) 
-505.1049266281459

>  <intra_energy>  (7) 
3.2809566000303194

>  <rmsd>  (7) 
4.84708

>  <sdf_rank>  (7) 
0

$$$$

     RDKit          3D

 41 43  0  0  0  0  0  0  0  0999 V2000
  -12.8364   19.5185  -29.0454 C   0  0  1  0  0  0  0  0  0  0  0  0
  -14.0124   18.8338  -28.3455 C   0  0  2  0  0  0  0  0  0  0  0  0
  -14.6409   18.0905  -29.5198 C   0  0  2  0  0  0  0  0  0  0  0  0
  -12.8891   16.3296  -30.0382 C   0  0  0  0  0  0  0  0  0  0  0  0
  -14.0722   14.5607  -30.1002 C   0  0  0  0  0  0  0  0  0  0  0  0
  -14.9434   15.5919  -29.7987 C   0  0  0  0  0  0  0  0  0  0  0  0
  -11.4587   21.6027  -35.0712 C   0  0  0  0  0  0  0  0  0  0  0  0
  -11.1554   22.6833  -34.7000 C   0  0  0  0  0  0  0  0  0  0  0  0
  -12.5071   20.1404  -31.5132 C   0  0  0  0  0  0  0  0  0  0  0  0
  -11.7869   20.2473  -35.5174 C   0  0  0  0  0  0  0  0  0  0  0  0
  -16.6724   14.2244  -29.7088 C   0  0  0  0  0  0  0  0  0  0  0  0
  -14.6209   13.2684  -30.2083 C   0  0  0  0  0  0  0  0  0  0  0  0
  -13.4747   19.9284  -30.3741 C   0  0  1  0  0  0  0  0  0  0  0  0
  -14.1727   16.7285  -29.7620 N   0  0  0  0  0  0  0  0  0  0  0  0
  -12.7755   15.0403  -30.2502 N   0  0  0  0  0  0  0  0  0  0  0  0
  -16.2696   15.4853  -29.5924 N   0  0  0  0  0  0  0  0  0  0  0  0
  -15.9528   13.1331  -29.9953 N   0  0  0  0  0  0  0  0  0  0  0  0
  -13.9061   12.1836  -30.4983 N   0  0  0  0  0  0  0  0  0  0  0  0
  -12.3396   20.6223  -28.2969 O   0  0  0  0  0  0  0  0  0  0  0  0
  -14.3894   18.8521  -30.6976 O   0  0  0  0  0  0  0  0  0  0  0  0
  -14.9284   19.8052  -27.8953 O   0  0  0  0  0  0  0  0  0  0  0  0
  -13.0842   19.6807  -32.7536 O   0  0  0  0  0  0  0  0  0  0  0  0
  -13.2454   17.7111  -34.3609 O   0  0  0  0  0  0  0  0  0  0  0  0
  -11.3635   19.2533  -34.5966 O   0  0  0  0  0  0  0  0  0  0  0  0
  -11.4099   17.8529  -32.5586 O   0  0  0  0  0  0  0  0  0  0  0  0
  -12.3100   18.5135  -33.5342 P   0  0  1  0  0  0  0  0  0  0  0  0
  -11.9461   18.8841  -29.1676 H   0  0  0  0  0  0  0  0  0  0  0  0
  -13.7326   18.2147  -27.4804 H   0  0  0  0  0  0  0  0  0  0  0  0
  -15.7045   17.9862  -29.2594 H   0  0  0  0  0  0  0  0  0  0  0  0
  -12.0372   17.0244  -30.0779 H   0  0  0  0  0  0  0  0  0  0  0  0
  -10.8731   23.6888  -34.3546 H   0  0  0  0  0  0  0  0  0  0  0  0
  -12.2743   21.2122  -31.5967 H   0  0  0  0  0  0  0  0  0  0  0  0
  -11.5885   19.5693  -31.3130 H   0  0  0  0  0  0  0  0  0  0  0  0
  -12.8772   20.1714  -35.6416 H   0  0  0  0  0  0  0  0  0  0  0  0
  -11.2580   20.0708  -36.4657 H   0  0  0  0  0  0  0  0  0  0  0  0
  -17.7470   14.0538  -29.5472 H   0  0  0  0  0  0  0  0  0  0  0  0
  -13.9560   20.9097  -30.2507 H   0  0  0  0  0  0  0  0  0  0  0  0
  -14.3674   11.2650  -30.5630 H   0  0  0  0  0  0  0  0  0  0  0  0
  -12.8916   12.2628  -30.6578 H   0  0  0  0  0  0  0  0  0  0  0  0
  -12.4258   20.4306  -27.3295 H   0  0  0  0  0  0  0  0  0  0  0  0
  -14.9383   19.8158  -26.9054 H   0  0  0  0  0  0  0  0  0  0  0  0
  1  2  1  0
  1 13  1  0
  1 19  1  0
  2  3  1  0
  2 21  1  0
  3 14  1  0
  3 20  1  0
  4 14  1  0
  4 15  2  0
  5  6  2  0
  5 12  1  0
  5 15  1  0
  6 14  1  0
  6 16  1  0
  7  8  3  0
  7 10  1  0
 13  9  1  0
  9 22  1  0
 10 24  1  0
 11 16  2  0
 11 17  1  0
 12 17  2  0
 12 18  1  0
 13 20  1  0
 22 26  1  0
 26 23  1  6
 24 26  1  0
 25 26  2  0
  1 27  1  6
  2 28  1  1
  3 29  1  1
  4 30  1  0
  8 31  1  0
  9 32  1  0
  9 33  1  0
 10 34  1  0
 10 35  1  0
 11 36  1  0
 13 37  1  1
 18 38  1  0
 18 39  1  0
 19 40  1  0
 21 41  1  0
M  CHG  1  23  -1
M  END
>  <filename_input>  (8) 
8G0V_YHT_docked.sdf

>  <pdb_id>  (8) 
8G0V_YHT

>  <pose_rank>  (8) 
7

>  <num_atoms_heavy>  (8) 
26

>  <num_torsions>  (8) 
7

>  <pose>  (8) 
[-12.836404659480651, 19.518478298499712, -29.04537548597541, -2.869779350134539, 0.2509570652574134, -1.0813296958036722, 0.9341191058397094, -0.5536450272076535, 1.14221929185489, 3.5257298259394068, -2.0188455236257523, -2.2530825195301576, -0.8627663043721012]

>  <energy>  (8) 
-603.3588724420623

>  <inter_energy>  (8) 
-618.1647345794821

>  <intra_energy>  (8) 
12.780561369751307

>  <rmsd>  (8) 
7.56094

>  <sdf_rank>  (8) 
0

$$$$

     RDKit          3D

 41 43  0  0  0  0  0  0  0  0999 V2000
  -13.6077   19.1315  -34.7378 C   0  0  1  0  0  0  0  0  0  0  0  0
  -13.5484   17.6497  -34.3607 C   0  0  2  0  0  0  0  0  0  0  0  0
  -12.5363   17.6928  -33.2205 C   0  0  2  0  0  0  0  0  0  0  0  0
  -13.1765   19.0453  -31.1712 C   0  0  0  0  0  0  0  0  0  0  0  0
  -13.8932   17.5233  -29.8664 C   0  0  0  0  0  0  0  0  0  0  0  0
  -13.5332   16.8827  -31.0382 C   0  0  0  0  0  0  0  0  0  0  0  0
   -9.4910   24.9511  -35.1293 C   0  0  0  0  0  0  0  0  0  0  0  0
   -8.7467   25.1404  -36.0280 C   0  0  0  0  0  0  0  0  0  0  0  0
  -11.8935   21.0066  -34.3757 C   0  0  0  0  0  0  0  0  0  0  0  0
  -10.3986   24.7626  -33.9958 C   0  0  0  0  0  0  0  0  0  0  0  0
  -14.1170   14.9090  -30.2436 C   0  0  0  0  0  0  0  0  0  0  0  0
  -14.3973   16.7206  -28.8252 C   0  0  0  0  0  0  0  0  0  0  0  0
  -12.1378   19.5347  -34.6048 C   0  0  1  0  0  0  0  0  0  0  0  0
  -13.0712   17.8709  -31.8732 N   0  0  0  0  0  0  0  0  0  0  0  0
  -13.6619   18.8913  -29.9626 N   0  0  0  0  0  0  0  0  0  0  0  0
  -13.6201   15.5626  -31.2884 N   0  0  0  0  0  0  0  0  0  0  0  0
  -14.5039   15.3889  -29.0558 N   0  0  0  0  0  0  0  0  0  0  0  0
  -14.7774   17.1971  -27.6419 N   0  0  0  0  0  0  0  0  0  0  0  0
  -14.1275   19.3281  -36.0480 O   0  0  0  0  0  0  0  0  0  0  0  0
  -11.6408   18.7708  -33.4782 O   0  0  0  0  0  0  0  0  0  0  0  0
  -12.9882   16.9113  -35.4220 O   0  0  0  0  0  0  0  0  0  0  0  0
  -11.5570   21.2500  -32.9935 O   0  0  0  0  0  0  0  0  0  0  0  0
  -10.8952   22.8797  -31.1510 O   0  0  0  0  0  0  0  0  0  0  0  0
  -10.3377   23.4486  -33.4621 O   0  0  0  0  0  0  0  0  0  0  0  0
  -12.7375   23.4344  -32.8644 O   0  0  0  0  0  0  0  0  0  0  0  0
  -11.4520   22.7792  -32.5229 P   0  0  1  0  0  0  0  0  0  0  0  0
  -14.2827   19.7347  -34.1129 H   0  0  0  0  0  0  0  0  0  0  0  0
  -14.5227   17.1992  -34.1204 H   0  0  0  0  0  0  0  0  0  0  0  0
  -12.0667   16.6981  -33.2135 H   0  0  0  0  0  0  0  0  0  0  0  0
  -12.8822   20.0220  -31.5827 H   0  0  0  0  0  0  0  0  0  0  0  0
   -8.0541   25.3165  -36.8642 H   0  0  0  0  0  0  0  0  0  0  0  0
  -11.0633   21.3404  -35.0154 H   0  0  0  0  0  0  0  0  0  0  0  0
  -12.8088   21.5638  -34.6242 H   0  0  0  0  0  0  0  0  0  0  0  0
  -10.1279   25.4774  -33.2047 H   0  0  0  0  0  0  0  0  0  0  0  0
  -11.4239   24.9286  -34.3580 H   0  0  0  0  0  0  0  0  0  0  0  0
  -14.2254   13.8221  -30.3730 H   0  0  0  0  0  0  0  0  0  0  0  0
  -11.6236   19.3267  -35.5547 H   0  0  0  0  0  0  0  0  0  0  0  0
  -15.1383   16.5566  -26.9205 H   0  0  0  0  0  0  0  0  0  0  0  0
  -14.7106   18.2064  -27.4476 H   0  0  0  0  0  0  0  0  0  0  0  0
  -15.0518   19.6776  -35.9873 H   0  0  0  0  0  0  0  0  0  0  0  0
  -12.4321   16.1783  -35.0567 H   0  0  0  0  0  0  0  0  0  0  0  0
  1  2  1  0
  1 13  1  0
  1 19  1  0
  2  3  1  0
  2 21  1  0
  3 14  1  0
  3 20  1  0
  4 14  1  0
  4 15  2  0
  5  6  2  0
  5 12  1  0
  5 15  1  0
  6 14  1  0
  6 16  1  0
  7  8  3  0
  7 10  1  0
 13  9  1  0
  9 22  1  0
 10 24  1  0
 11 16  2  0
 11 17  1  0
 12 17  2  0
 12 18  1  0
 13 20  1  0
 22 26  1  0
 26 23  1  1
 24 26  1  0
 25 26  2  0
  1 27  1  1
  2 28  1  1
  3 29  1  1
  4 30  1  0
  8 31  1  0
  9 32  1  0
  9 33  1  0
 10 34  1  0
 10 35  1  0
 11 36  1  0
 13 37  1  6
 18 38  1  0
 18 39  1  0
 19 40  1  0
 21 41  1  0
M  CHG  1  23  -1
M  END
>  <filename_input>  (9) 
8G0V_YHT_docked.sdf

>  <pdb_id>  (9) 
8G0V_YHT

>  <pose_rank>  (9) 
8

>  <num_atoms_heavy>  (9) 
26

>  <num_torsions>  (9) 
7

>  <pose>  (9) 
[-13.607721979330218, 19.131513214140426, -34.737818409190396, 0.01269961511493142, 1.7948456854797137, 2.3736997587119317, 0.2843519934198059, -1.240647685922136, 0.22962065393999148, -2.1274577989943952, -4.946699200768998, -0.545413988111241, 2.2768336500201274]

>  <energy>  (9) 
-601.0798374451012

>  <inter_energy>  (9) 
-595.2452410139445

>  <intra_energy>  (9) 
5.1843984974044535

>  <rmsd>  (9) 
6.85755

>  <sdf_rank>  (9) 
0

$$$$

     RDKit          3D

 41 43  0  0  0  0  0  0  0  0999 V2000
  -11.3696   17.7940  -32.6995 C   0  0  1  0  0  0  0  0  0  0  0  0
  -11.6711   18.5523  -33.9939 C   0  0  2  0  0  0  0  0  0  0  0  0
  -12.7227   19.5402  -33.4995 C   0  0  2  0  0  0  0  0  0  0  0  0
  -12.2314   21.2868  -31.7256 C   0  0  0  0  0  0  0  0  0  0  0  0
  -11.4475   22.8777  -32.9033 C   0  0  0  0  0  0  0  0  0  0  0  0
  -11.7313   21.8526  -33.7875 C   0  0  0  0  0  0  0  0  0  0  0  0
  -15.7307   13.9843  -30.8740 C   0  0  0  0  0  0  0  0  0  0  0  0
  -15.4162   12.8969  -31.2150 C   0  0  0  0  0  0  0  0  0  0  0  0
  -12.7979   17.4747  -30.5915 C   0  0  0  0  0  0  0  0  0  0  0  0
  -16.0766   15.3496  -30.4738 C   0  0  0  0  0  0  0  0  0  0  0  0
  -11.0354   23.0318  -35.5174 C   0  0  0  0  0  0  0  0  0  0  0  0
  -10.9177   24.0642  -33.4456 C   0  0  0  0  0  0  0  0  0  0  0  0
  -12.7669   17.6773  -32.0871 C   0  0  1  0  0  0  0  0  0  0  0  0
  -12.2374   20.8316  -33.0201 N   0  0  0  0  0  0  0  0  0  0  0  0
  -11.7691   22.5079  -31.6019 N   0  0  0  0  0  0  0  0  0  0  0  0
  -11.5478   21.8715  -35.1212 N   0  0  0  0  0  0  0  0  0  0  0  0
  -10.7141   24.1049  -34.7853 N   0  0  0  0  0  0  0  0  0  0  0  0
  -10.6028   25.1335  -32.7181 N   0  0  0  0  0  0  0  0  0  0  0  0
  -10.7591   16.5331  -32.9498 O   0  0  0  0  0  0  0  0  0  0  0  0
  -13.4309   18.9185  -32.4307 O   0  0  0  0  0  0  0  0  0  0  0  0
  -12.2806   17.6847  -34.9220 O   0  0  0  0  0  0  0  0  0  0  0  0
  -14.1585   17.4946  -30.1108 O   0  0  0  0  0  0  0  0  0  0  0  0
  -15.0621   17.5510  -27.7298 O   0  0  0  0  0  0  0  0  0  0  0  0
  -15.6535   15.6538  -29.1533 O   0  0  0  0  0  0  0  0  0  0  0  0
  -13.2833   15.8417  -28.4724 O   0  0  0  0  0  0  0  0  0  0  0  0
  -14.4748   16.6719  -28.7712 P   0  0  1  0  0  0  0  0  0  0  0  0
  -10.6446   18.2908  -32.0380 H   0  0  0  0  0  0  0  0  0  0  0  0
  -10.7896   18.9942  -34.4814 H   0  0  0  0  0  0  0  0  0  0  0  0
  -13.3366   19.7740  -34.3818 H   0  0  0  0  0  0  0  0  0  0  0  0
  -12.5808   20.6853  -30.8735 H   0  0  0  0  0  0  0  0  0  0  0  0
  -15.1237   11.8851  -31.5322 H   0  0  0  0  0  0  0  0  0  0  0  0
  -12.3411   16.5042  -30.3473 H   0  0  0  0  0  0  0  0  0  0  0  0
  -12.2362   18.2880  -30.1088 H   0  0  0  0  0  0  0  0  0  0  0  0
  -15.5956   16.0534  -31.1691 H   0  0  0  0  0  0  0  0  0  0  0  0
  -17.1727   15.4381  -30.5018 H   0  0  0  0  0  0  0  0  0  0  0  0
  -10.8495   23.1229  -36.5978 H   0  0  0  0  0  0  0  0  0  0  0  0
  -13.2567   16.7766  -32.4855 H   0  0  0  0  0  0  0  0  0  0  0  0
  -10.2183   25.9725  -33.1755 H   0  0  0  0  0  0  0  0  0  0  0  0
  -10.7436   25.1219  -31.6979 H   0  0  0  0  0  0  0  0  0  0  0  0
  -10.5460   16.0929  -32.0890 H   0  0  0  0  0  0  0  0  0  0  0  0
  -12.7767   16.9785  -34.4369 H   0  0  0  0  0  0  0  0  0  0  0  0
  1  2  1  0
  1 13  1  0
  1 19  1  0
  2  3  1  0
  2 21  1  0
  3 14  1  0
  3 20  1  0
  4 14  1  0
  4 15  2  0
  5  6  2  0
  5 12  1  0
  5 15  1  0
  6 14  1  0
  6 16  1  0
  7  8  3  0
  7 10  1  0
 13  9  1  0
  9 22  1  0
 10 24  1  0
 11 16  2  0
 11 17  1  0
 12 17  2  0
 12 18  1  0
 13 20  1  0
 22 26  1  0
 26 23  1  1
 24 26  1  0
 25 26  2  0
  1 27  1  1
  2 28  1  6
  3 29  1  6
  4 30  1  0
  8 31  1  0
  9 32  1  0
  9 33  1  0
 10 34  1  0
 10 35  1  0
 11 36  1  0
 13 37  1  6
 18 38  1  0
 18 39  1  0
 19 40  1  0
 21 41  1  0
M  CHG  1  23  -1
M  END
>  <filename_input>  (10) 
8G0V_YHT_docked.sdf

>  <pdb_id>  (10) 
8G0V_YHT

>  <pose_rank>  (10) 
9

>  <num_atoms_heavy>  (10) 
26

>  <num_torsions>  (10) 
7

>  <pose>  (10) 
[-11.369618486458306, 17.794020037473132, -32.69948000852437, 0.4121658922014637, 3.6116264437544845, -5.1781390986864295, 0.04969497575806706, 6.284224564919808, -0.3815308219581487, 3.002366988541462, 5.387557706924204, -2.0795878442925075, 2.993526914946571]

>  <energy>  (10) 
-829.3946549957435

>  <inter_energy>  (10) 
-830.0773288889858

>  <intra_energy>  (10) 
1.802362450038433

>  <rmsd>  (10) 
2.66065

>  <sdf_rank>  (10) 
0

$$$$

     RDKit          3D

 41 43  0  0  0  0  0  0  0  0999 V2000
  -12.8694   19.6332  -28.6826 C   0  0  1  0  0  0  0  0  0  0  0  0
  -14.0756   19.0708  -27.9275 C   0  0  2  0  0  0  0  0  0  0  0  0
  -14.8321   18.4012  -29.0703 C   0  0  2  0  0  0  0  0  0  0  0  0
  -13.2986   16.4714  -29.6724 C   0  0  0  0  0  0  0  0  0  0  0  0
  -14.6589   14.8337  -29.6725 C   0  0  0  0  0  0  0  0  0  0  0  0
  -15.4034   15.9479  -29.3297 C   0  0  0  0  0  0  0  0  0  0  0  0
  -14.1742   18.3321  -35.7041 C   0  0  0  0  0  0  0  0  0  0  0  0
  -14.1394   18.9132  -36.7330 C   0  0  0  0  0  0  0  0  0  0  0  0
  -12.5940   20.2280  -31.1637 C   0  0  0  0  0  0  0  0  0  0  0  0
  -14.1739   17.6375  -34.4151 C   0  0  0  0  0  0  0  0  0  0  0  0
  -17.2572   14.7650  -29.1515 C   0  0  0  0  0  0  0  0  0  0  0  0
  -15.3422   13.6050  -29.7511 C   0  0  0  0  0  0  0  0  0  0  0  0
  -13.5236   20.1123  -29.9801 C   0  0  1  0  0  0  0  0  0  0  0  0
  -14.5190   16.9992  -29.3333 N   0  0  0  0  0  0  0  0  0  0  0  0
  -13.3289   15.1780  -29.8877 N   0  0  0  0  0  0  0  0  0  0  0  0
  -16.7217   15.9775  -29.0574 N   0  0  0  0  0  0  0  0  0  0  0  0
  -16.6688   13.6065  -29.4717 N   0  0  0  0  0  0  0  0  0  0  0  0
  -14.7581   12.4535  -30.0744 N   0  0  0  0  0  0  0  0  0  0  0  0
  -12.2265   20.6768  -27.9593 O   0  0  0  0  0  0  0  0  0  0  0  0
  -14.5589   19.1376  -30.2592 O   0  0  0  0  0  0  0  0  0  0  0  0
  -14.8642   20.1297  -27.4353 O   0  0  0  0  0  0  0  0  0  0  0  0
  -13.0981   19.4569  -32.2747 O   0  0  0  0  0  0  0  0  0  0  0  0
  -11.0902   17.8895  -32.2541 O   0  0  0  0  0  0  0  0  0  0  0  0
  -12.8679   17.4806  -33.8813 O   0  0  0  0  0  0  0  0  0  0  0  0
  -11.5190   19.5299  -34.1940 O   0  0  0  0  0  0  0  0  0  0  0  0
  -12.0299   18.6264  -33.1352 P   0  0  1  0  0  0  0  0  0  0  0  0
  -12.0561   18.9109  -28.8462 H   0  0  0  0  0  0  0  0  0  0  0  0
  -13.8209   18.4225  -27.0761 H   0  0  0  0  0  0  0  0  0  0  0  0
  -15.8874   18.4062  -28.7599 H   0  0  0  0  0  0  0  0  0  0  0  0
  -12.3828   17.0751  -29.7556 H   0  0  0  0  0  0  0  0  0  0  0  0
  -14.1070   19.4539  -37.6904 H   0  0  0  0  0  0  0  0  0  0  0  0
  -12.5151   21.2840  -31.4613 H   0  0  0  0  0  0  0  0  0  0  0  0
  -11.6041   19.8411  -30.8800 H   0  0  0  0  0  0  0  0  0  0  0  0
  -14.7789   18.2170  -33.7022 H   0  0  0  0  0  0  0  0  0  0  0  0
  -14.5912   16.6327  -34.5774 H   0  0  0  0  0  0  0  0  0  0  0  0
  -18.3343   14.7052  -28.9363 H   0  0  0  0  0  0  0  0  0  0  0  0
  -13.8947   21.1376  -29.8349 H   0  0  0  0  0  0  0  0  0  0  0  0
  -15.3141   11.5874  -30.1146 H   0  0  0  0  0  0  0  0  0  0  0  0
  -13.7500   12.4286  -30.2845 H   0  0  0  0  0  0  0  0  0  0  0  0
  -12.3263   20.5148  -26.9877 H   0  0  0  0  0  0  0  0  0  0  0  0
  -14.8541   20.1162  -26.4455 H   0  0  0  0  0  0  0  0  0  0  0  0
  1  2  1  0
  1 13  1  0
  1 19  1  0
  2  3  1  0
  2 21  1  0
  3 14  1  0
  3 20  1  0
  4 14  1  0
  4 15  2  0
  5  6  2  0
  5 12  1  0
  5 15  1  0
  6 14  1  0
  6 16  1  0
  7  8  3  0
  7 10  1  0
 13  9  1  0
  9 22  1  0
 10 24  1  0
 11 16  2  0
 11 17  1  0
 12 17  2  0
 12 18  1  0
 13 20  1  0
 22 26  1  0
 26 23  1  1
 24 26  1  0
 25 26  2  0
  1 27  1  6
  2 28  1  1
  3 29  1  1
  4 30  1  0
  8 31  1  0
  9 32  1  0
  9 33  1  0
 10 34  1  0
 10 35  1  0
 11 36  1  0
 13 37  1  1
 18 38  1  0
 18 39  1  0
 19 40  1  0
 21 41  1  0
M  CHG  1  23  -1
M  END
>  <filename_input>  (11) 
8G0V_YHT_docked.sdf

>  <pdb_id>  (11) 
8G0V_YHT

>  <pose_rank>  (11) 
10

>  <num_atoms_heavy>  (11) 
26

>  <num_torsions>  (11) 
7

>  <pose>  (11) 
[-12.869394658336901, 19.633240196766824, -28.682616154463844, -2.912514479510507, 0.4071473527210798, -1.0291870706979063, 26.064025554605184, -0.8720423922975162, -5.479971887246707, -29.757544373722094, -13.042894190254824, 9.930945816472258, -2.1361919195336236]

>  <energy>  (11) 
-614.0530635065176

>  <inter_energy>  (11) 
-618.6056502647151

>  <intra_energy>  (11) 
9.957940460054136

>  <rmsd>  (11) 
7.73061

>  <sdf_rank>  (11) 
0

$$$$

     RDKit          3D

 41 43  0  0  0  0  0  0  0  0999 V2000
  -11.6331   16.0744  -32.7809 C   0  0  1  0  0  0  0  0  0  0  0  0
  -12.1728   17.1745  -33.6975 C   0  0  2  0  0  0  0  0  0  0  0  0
  -13.3529   17.6727  -32.8696 C   0  0  2  0  0  0  0  0  0  0  0  0
  -12.1452   19.7569  -32.0720 C   0  0  0  0  0  0  0  0  0  0  0  0
  -13.1019   20.1118  -30.2035 C   0  0  0  0  0  0  0  0  0  0  0  0
  -13.7121   18.9913  -30.7377 C   0  0  0  0  0  0  0  0  0  0  0  0
  -16.7542   15.5662  -29.5263 C   0  0  0  0  0  0  0  0  0  0  0  0
  -17.5595   16.4239  -29.6417 C   0  0  0  0  0  0  0  0  0  0  0  0
  -12.8075   14.7176  -30.9464 C   0  0  0  0  0  0  0  0  0  0  0  0
  -15.7463   14.5214  -29.3353 C   0  0  0  0  0  0  0  0  0  0  0  0
  -15.0606   18.7889  -29.0033 C   0  0  0  0  0  0  0  0  0  0  0  0
  -13.5576   20.5524  -28.9461 C   0  0  0  0  0  0  0  0  0  0  0  0
  -12.9309   15.4558  -32.2573 C   0  0  1  0  0  0  0  0  0  0  0  0
  -13.0885   18.7689  -31.9414 N   0  0  0  0  0  0  0  0  0  0  0  0
  -12.1116   20.5865  -31.0567 N   0  0  0  0  0  0  0  0  0  0  0  0
  -14.7062   18.2769  -30.1772 N   0  0  0  0  0  0  0  0  0  0  0  0
  -14.5649   19.8556  -28.3651 N   0  0  0  0  0  0  0  0  0  0  0  0
  -13.0611   21.6103  -28.3089 N   0  0  0  0  0  0  0  0  0  0  0  0
  -10.8136   15.1480  -33.4849 O   0  0  0  0  0  0  0  0  0  0  0  0
  -13.8447   16.5709  -32.1115 O   0  0  0  0  0  0  0  0  0  0  0  0
  -12.6744   16.6016  -34.8831 O   0  0  0  0  0  0  0  0  0  0  0  0
  -12.9771   13.2992  -31.1516 O   0  0  0  0  0  0  0  0  0  0  0  0
  -14.2625   12.0995  -29.3084 O   0  0  0  0  0  0  0  0  0  0  0  0
  -15.3949   13.8752  -30.5494 O   0  0  0  0  0  0  0  0  0  0  0  0
  -14.8593   11.8084  -31.7977 O   0  0  0  0  0  0  0  0  0  0  0  0
  -14.3668   12.6516  -30.6820 P   0  0  1  0  0  0  0  0  0  0  0  0
  -10.9680   16.4323  -31.9813 H   0  0  0  0  0  0  0  0  0  0  0  0
  -11.4323   17.9359  -33.9837 H   0  0  0  0  0  0  0  0  0  0  0  0
  -14.0662   18.0815  -33.6004 H   0  0  0  0  0  0  0  0  0  0  0  0
  -11.4811   19.8448  -32.9445 H   0  0  0  0  0  0  0  0  0  0  0  0
  -18.3088   17.2220  -29.7491 H   0  0  0  0  0  0  0  0  0  0  0  0
  -11.8126   14.9055  -30.5165 H   0  0  0  0  0  0  0  0  0  0  0  0
  -13.5888   15.0754  -30.2597 H   0  0  0  0  0  0  0  0  0  0  0  0
  -14.8429   14.9776  -28.9043 H   0  0  0  0  0  0  0  0  0  0  0  0
  -16.1756   13.7620  -28.6651 H   0  0  0  0  0  0  0  0  0  0  0  0
  -15.8749   18.2626  -28.4837 H   0  0  0  0  0  0  0  0  0  0  0  0
  -13.2684   14.6836  -32.9643 H   0  0  0  0  0  0  0  0  0  0  0  0
  -13.4384   21.8817  -27.3897 H   0  0  0  0  0  0  0  0  0  0  0  0
  -12.2997   22.1577  -28.7351 H   0  0  0  0  0  0  0  0  0  0  0  0
  -10.3176   14.5874  -32.8369 H   0  0  0  0  0  0  0  0  0  0  0  0
  -13.3092   15.8766  -34.6564 H   0  0  0  0  0  0  0  0  0  0  0  0
  1  2  1  0
  1 13  1  0
  1 19  1  0
  2  3  1  0
  2 21  1  0
  3 14  1  0
  3 20  1  0
  4 14  1  0
  4 15  2  0
  5  6  2  0
  5 12  1  0
  5 15  1  0
  6 14  1  0
  6 16  1  0
  7  8  3  0
  7 10  1  0
 13  9  1  0
  9 22  1  0
 10 24  1  0
 11 16  2  0
 11 17  1  0
 12 17  2  0
 12 18  1  0
 13 20  1  0
 22 26  1  0
 26 23  1  1
 24 26  1  0
 25 26  2  0
  1 27  1  1
  2 28  1  6
  3 29  1  6
  4 30  1  0
  8 31  1  0
  9 32  1  0
  9 33  1  0
 10 34  1  0
 10 35  1  0
 11 36  1  0
 13 37  1  6
 18 38  1  0
 18 39  1  0
 19 40  1  0
 21 41  1  0
M  CHG  1  23  -1
M  END
>  <filename_input>  (12) 
8G0V_YHT_docked.sdf

>  <pdb_id>  (12) 
8G0V_YHT

>  <pose_rank>  (12) 
11

>  <num_atoms_heavy>  (12) 
26

>  <num_torsions>  (12) 
7

>  <pose>  (12) 
[-11.633120097555182, 16.074414104133265, -32.78092248497496, -5.250709021574337, -0.975955138194121, -2.4055200027545824, -10.08160340609197, -11.269993677185761, -11.171932402561014, -32.20244692826189, -21.707924315665483, -7.102910066360519, 1.7431987649767378]

>  <energy>  (12) 
-515.8536232686195

>  <inter_energy>  (12) 
-540.2725603112721

>  <intra_energy>  (12) 
32.369972068655144

>  <rmsd>  (12) 
4.639

>  <sdf_rank>  (12) 
0

$$$$

     RDKit          3D

 41 43  0  0  0  0  0  0  0  0999 V2000
  -11.4948   17.4723  -32.5426 C   0  0  1  0  0  0  0  0  0  0  0  0
  -12.1120   18.1329  -33.7772 C   0  0  2  0  0  0  0  0  0  0  0  0
  -13.1028   19.0862  -33.1170 C   0  0  2  0  0  0  0  0  0  0  0  0
  -12.8456   21.1536  -31.6685 C   0  0  0  0  0  0  0  0  0  0  0  0
  -11.6957   22.4190  -32.9370 C   0  0  0  0  0  0  0  0  0  0  0  0
  -11.8753   21.2393  -33.6365 C   0  0  0  0  0  0  0  0  0  0  0  0
  -16.5815   16.0545  -30.0450 C   0  0  0  0  0  0  0  0  0  0  0  0
  -16.8502   14.9096  -30.1648 C   0  0  0  0  0  0  0  0  0  0  0  0
  -12.4252   17.1977  -30.1668 C   0  0  0  0  0  0  0  0  0  0  0  0
  -16.2019   17.4630  -29.9180 C   0  0  0  0  0  0  0  0  0  0  0  0
  -10.7307   21.9873  -35.3680 C   0  0  0  0  0  0  0  0  0  0  0  0
  -10.9622   23.4377  -33.5750 C   0  0  0  0  0  0  0  0  0  0  0  0
  -12.7216   17.3118  -31.6426 C   0  0  1  0  0  0  0  0  0  0  0  0
  -12.6186   20.4299  -32.8121 N   0  0  0  0  0  0  0  0  0  0  0  0
  -12.3150   22.3528  -31.6936 N   0  0  0  0  0  0  0  0  0  0  0  0
  -11.4142   20.9619  -34.8707 N   0  0  0  0  0  0  0  0  0  0  0  0
  -10.4784   23.1794  -34.8147 N   0  0  0  0  0  0  0  0  0  0  0  0
  -10.7155   24.6253  -33.0268 N   0  0  0  0  0  0  0  0  0  0  0  0
  -10.8643   16.2361  -32.8582 O   0  0  0  0  0  0  0  0  0  0  0  0
  -13.5271   18.4897  -31.8944 O   0  0  0  0  0  0  0  0  0  0  0  0
  -12.8405   17.1774  -34.5133 O   0  0  0  0  0  0  0  0  0  0  0  0
  -13.2382   18.1263  -29.4187 O   0  0  0  0  0  0  0  0  0  0  0  0
  -13.9490   18.3235  -26.9805 O   0  0  0  0  0  0  0  0  0  0  0  0
  -15.6492   17.7654  -28.6459 O   0  0  0  0  0  0  0  0  0  0  0  0
  -13.9117   16.0601  -28.2105 O   0  0  0  0  0  0  0  0  0  0  0  0
  -14.1211   17.5278  -28.2213 P   0  0  1  0  0  0  0  0  0  0  0  0
  -10.6837   18.0489  -32.0741 H   0  0  0  0  0  0  0  0  0  0  0  0
  -11.3846   18.5950  -34.4608 H   0  0  0  0  0  0  0  0  0  0  0  0
  -13.9023   19.2307  -33.8585 H   0  0  0  0  0  0  0  0  0  0  0  0
  -13.4176   20.7653  -30.8129 H   0  0  0  0  0  0  0  0  0  0  0  0
  -17.1002   13.8442  -30.2763 H   0  0  0  0  0  0  0  0  0  0  0  0
  -12.6428   16.1730  -29.8312 H   0  0  0  0  0  0  0  0  0  0  0  0
  -11.3644   17.4333  -29.9960 H   0  0  0  0  0  0  0  0  0  0  0  0
  -15.4561   17.6983  -30.6915 H   0  0  0  0  0  0  0  0  0  0  0  0
  -17.1138   18.0664  -30.0377 H   0  0  0  0  0  0  0  0  0  0  0  0
  -10.3144   21.8349  -36.3747 H   0  0  0  0  0  0  0  0  0  0  0  0
  -13.2204   16.3620  -31.8856 H   0  0  0  0  0  0  0  0  0  0  0  0
  -10.1718   25.3293  -33.5462 H   0  0  0  0  0  0  0  0  0  0  0  0
  -11.0684   24.8404  -32.0834 H   0  0  0  0  0  0  0  0  0  0  0  0
  -10.6241   15.7650  -32.0213 H   0  0  0  0  0  0  0  0  0  0  0  0
  -13.3067   16.5659  -33.8897 H   0  0  0  0  0  0  0  0  0  0  0  0
  1  2  1  0
  1 13  1  0
  1 19  1  0
  2  3  1  0
  2 21  1  0
  3 14  1  0
  3 20  1  0
  4 14  1  0
  4 15  2  0
  5  6  2  0
  5 12  1  0
  5 15  1  0
  6 14  1  0
  6 16  1  0
  7  8  3  0
  7 10  1  0
 13  9  1  0
  9 22  1  0
 10 24  1  0
 11 16  2  0
 11 17  1  0
 12 17  2  0
 12 18  1  0
 13 20  1  0
 22 26  1  0
 26 23  1  1
 24 26  1  0
 25 26  2  0
  1 27  1  1
  2 28  1  6
  3 29  1  6
  4 30  1  0
  8 31  1  0
  9 32  1  0
  9 33  1  0
 10 34  1  0
 10 35  1  0
 11 36  1  0
 13 37  1  6
 18 38  1  0
 18 39  1  0
 19 40  1  0
 21 41  1  0
M  CHG  1  23  -1
M  END
>  <filename_input>  (13) 
8G0V_YHT_docked.sdf

>  <pdb_id>  (13) 
8G0V_YHT

>  <pose_rank>  (13) 
12

>  <num_atoms_heavy>  (13) 
26

>  <num_torsions>  (13) 
7

>  <pose>  (13) 
[-11.494787735877894, 17.47229558101554, -32.54262237180969, 1.3680616380490522, -5.841790752752203, -0.684095213947485, -0.4294995285568955, 5.491693718300664, -0.8476509620123336, 3.150644744629419, 5.9825333984796725, -2.559236103907034, 3.0073292140204195]

>  <energy>  (13) 
-834.2604310008433

>  <inter_energy>  (13) 
-842.8126413827507

>  <intra_energy>  (13) 
14.695935730613702

>  <rmsd>  (13) 
2.22414

>  <sdf_rank>  (13) 
0

$$$$

     RDKit          3D

 41 43  0  0  0  0  0  0  0  0999 V2000
  -13.3791   18.4591  -28.4814 C   0  0  1  0  0  0  0  0  0  0  0  0
  -14.1809   17.3897  -27.7364 C   0  0  2  0  0  0  0  0  0  0  0  0
  -14.9038   16.7216  -28.9013 C   0  0  2  0  0  0  0  0  0  0  0  0
  -12.8915   15.4522  -29.7834 C   0  0  0  0  0  0  0  0  0  0  0  0
  -13.8049   13.6853  -30.5426 C   0  0  0  0  0  0  0  0  0  0  0  0
  -14.8304   14.4470  -30.0121 C   0  0  0  0  0  0  0  0  0  0  0  0
  -13.5853   18.8058  -36.3155 C   0  0  0  0  0  0  0  0  0  0  0  0
  -14.4253   18.7018  -37.1408 C   0  0  0  0  0  0  0  0  0  0  0  0
  -13.7930   19.5536  -30.7653 C   0  0  0  0  0  0  0  0  0  0  0  0
  -12.5097   18.9413  -35.3313 C   0  0  0  0  0  0  0  0  0  0  0  0
  -16.3492   12.9413  -30.5537 C   0  0  0  0  0  0  0  0  0  0  0  0
  -14.1565   12.4519  -31.1237 C   0  0  0  0  0  0  0  0  0  0  0  0
  -14.3904   18.9127  -29.5361 C   0  0  1  0  0  0  0  0  0  0  0  0
  -14.2329   15.5846  -29.5261 N   0  0  0  0  0  0  0  0  0  0  0  0
  -12.5832   14.3324  -30.3926 N   0  0  0  0  0  0  0  0  0  0  0  0
  -16.1377   14.1260  -29.9903 N   0  0  0  0  0  0  0  0  0  0  0  0
  -15.4659   12.1010  -31.1055 N   0  0  0  0  0  0  0  0  0  0  0  0
  -13.2786   11.6183  -31.6770 N   0  0  0  0  0  0  0  0  0  0  0  0
  -12.9593   19.5094  -27.6176 O   0  0  0  0  0  0  0  0  0  0  0  0
  -15.1094   17.7104  -29.9065 O   0  0  0  0  0  0  0  0  0  0  0  0
  -15.1439   18.0057  -26.9126 O   0  0  0  0  0  0  0  0  0  0  0  0
  -12.9686   18.6051  -31.4751 O   0  0  0  0  0  0  0  0  0  0  0  0
  -10.9112   18.2946  -32.9445 O   0  0  0  0  0  0  0  0  0  0  0  0
  -12.9960   19.0129  -33.9995 O   0  0  0  0  0  0  0  0  0  0  0  0
  -11.9078   20.6223  -32.4690 O   0  0  0  0  0  0  0  0  0  0  0  0
  -12.0844   19.1667  -32.6891 P   0  0  1  0  0  0  0  0  0  0  0  0
  -12.4319   18.1019  -28.9118 H   0  0  0  0  0  0  0  0  0  0  0  0
  -13.5771   16.7245  -27.1015 H   0  0  0  0  0  0  0  0  0  0  0  0
  -15.8269   16.3079  -28.4692 H   0  0  0  0  0  0  0  0  0  0  0  0
  -12.1464   16.2122  -29.5053 H   0  0  0  0  0  0  0  0  0  0  0  0
  -15.2069   18.6051  -37.9087 H   0  0  0  0  0  0  0  0  0  0  0  0
  -14.6031   19.8958  -31.4261 H   0  0  0  0  0  0  0  0  0  0  0  0
  -13.1714   20.4072  -30.4572 H   0  0  0  0  0  0  0  0  0  0  0  0
  -11.8421   18.0712  -35.4166 H   0  0  0  0  0  0  0  0  0  0  0  0
  -11.9792   19.8811  -35.5440 H   0  0  0  0  0  0  0  0  0  0  0  0
  -17.3962   12.6044  -30.5688 H   0  0  0  0  0  0  0  0  0  0  0  0
  -15.0226   19.7040  -29.1069 H   0  0  0  0  0  0  0  0  0  0  0  0
  -13.5998   10.7292  -32.0861 H   0  0  0  0  0  0  0  0  0  0  0  0
  -12.2781   11.8623  -31.6962 H   0  0  0  0  0  0  0  0  0  0  0  0
  -13.0722   19.2269  -26.6755 H   0  0  0  0  0  0  0  0  0  0  0  0
  -14.9098   17.8560  -25.9624 H   0  0  0  0  0  0  0  0  0  0  0  0
  1  2  1  0
  1 13  1  0
  1 19  1  0
  2  3  1  0
  2 21  1  0
  3 14  1  0
  3 20  1  0
  4 14  1  0
  4 15  2  0
  5  6  2  0
  5 12  1  0
  5 15  1  0
  6 14  1  0
  6 16  1  0
  7  8  3  0
  7 10  1  0
 13  9  1  0
  9 22  1  0
 10 24  1  0
 11 16  2  0
 11 17  1  0
 12 17  2  0
 12 18  1  0
 13 20  1  0
 22 26  1  0
 26 23  1  6
 24 26  1  0
 25 26  2  0
  1 27  1  6
  2 28  1  1
  3 29  1  1
  4 30  1  0
  8 31  1  0
  9 32  1  0
  9 33  1  0
 10 34  1  0
 10 35  1  0
 11 36  1  0
 13 37  1  1
 18 38  1  0
 18 39  1  0
 19 40  1  0
 21 41  1  0
M  CHG  1  23  -1
M  END
>  <filename_input>  (14) 
8G0V_YHT_docked.sdf

>  <pdb_id>  (14) 
8G0V_YHT

>  <pose_rank>  (14) 
13

>  <num_atoms_heavy>  (14) 
26

>  <num_torsions>  (14) 
7

>  <pose>  (14) 
[-13.379091407732567, 18.459116964443833, -28.481389986792784, -2.7485605956315506, 0.024466635223990223, -0.6567983862866539, -4.9977159108683775, -8.232521380088592, 0.2430320831189109, 3.5798914984068664, 2.410871796895155, 5.421936921600333, 1.3615727688093817]

>  <energy>  (14) 
-609.6265001717337

>  <inter_energy>  (14) 
-601.4728951379759

>  <intra_energy>  (14) 
7.1477150238137845

>  <rmsd>  (14) 
8.01271

>  <sdf_rank>  (14) 
0

$$$$

     RDKit          3D

 41 43  0  0  0  0  0  0  0  0999 V2000
  -14.6008   19.2586  -29.9328 C   0  0  1  0  0  0  0  0  0  0  0  0
  -13.2153   19.8980  -29.8187 C   0  0  2  0  0  0  0  0  0  0  0  0
  -12.3681   18.8587  -30.5456 C   0  0  2  0  0  0  0  0  0  0  0  0
  -11.3122   19.9094  -32.5997 C   0  0  0  0  0  0  0  0  0  0  0  0
  -12.3908   18.9531  -34.1665 C   0  0  0  0  0  0  0  0  0  0  0  0
  -12.8840   18.4257  -32.9867 C   0  0  0  0  0  0  0  0  0  0  0  0
  -12.5383   11.8565  -30.5201 C   0  0  0  0  0  0  0  0  0  0  0  0
  -12.0330   10.9792  -31.1304 C   0  0  0  0  0  0  0  0  0  0  0  0
  -15.2740   16.8063  -30.2770 C   0  0  0  0  0  0  0  0  0  0  0  0
  -13.1185   12.9517  -29.7405 C   0  0  0  0  0  0  0  0  0  0  0  0
  -14.3035   17.1208  -34.0590 C   0  0  0  0  0  0  0  0  0  0  0  0
  -12.9571   18.4812  -35.3662 C   0  0  0  0  0  0  0  0  0  0  0  0
  -14.2690   17.7812  -29.7129 C   0  0  1  0  0  0  0  0  0  0  0  0
  -12.1842   19.0486  -31.9819 N   0  0  0  0  0  0  0  0  0  0  0  0
  -11.3974   19.8914  -33.9084 N   0  0  0  0  0  0  0  0  0  0  0  0
  -13.8530   17.4986  -32.8673 N   0  0  0  0  0  0  0  0  0  0  0  0
  -13.9280   17.5397  -35.2733 N   0  0  0  0  0  0  0  0  0  0  0  0
  -12.5872   18.9014  -36.5738 N   0  0  0  0  0  0  0  0  0  0  0  0
  -15.5096   19.7793  -28.9693 O   0  0  0  0  0  0  0  0  0  0  0  0
  -12.9823   17.5878  -30.3507 O   0  0  0  0  0  0  0  0  0  0  0  0
  -12.8157   19.9285  -28.4678 O   0  0  0  0  0  0  0  0  0  0  0  0
  -15.1156   15.5104  -29.6617 O   0  0  0  0  0  0  0  0  0  0  0  0
  -14.6381   14.3969  -31.9025 O   0  0  0  0  0  0  0  0  0  0  0  0
  -14.5292   13.0307  -29.8784 O   0  0  0  0  0  0  0  0  0  0  0  0
  -16.7604   13.8664  -30.5416 O   0  0  0  0  0  0  0  0  0  0  0  0
  -15.3227   14.2246  -30.5971 P   0  0  1  0  0  0  0  0  0  0  0  0
  -15.1155   19.4520  -30.8854 H   0  0  0  0  0  0  0  0  0  0  0  0
  -13.1520   20.9252  -30.2072 H   0  0  0  0  0  0  0  0  0  0  0  0
  -11.3614   18.9528  -30.1125 H   0  0  0  0  0  0  0  0  0  0  0  0
  -10.6093   20.5528  -32.0502 H   0  0  0  0  0  0  0  0  0  0  0  0
  -11.5628   10.1628  -31.6983 H   0  0  0  0  0  0  0  0  0  0  0  0
  -16.2903   17.1790  -30.0813 H   0  0  0  0  0  0  0  0  0  0  0  0
  -15.1096   16.7101  -31.3604 H   0  0  0  0  0  0  0  0  0  0  0  0
  -12.8762   12.7956  -28.6789 H   0  0  0  0  0  0  0  0  0  0  0  0
  -12.6929   13.8928  -30.1189 H   0  0  0  0  0  0  0  0  0  0  0  0
  -15.0955   16.3575  -34.0455 H   0  0  0  0  0  0  0  0  0  0  0  0
  -14.2750   17.5712  -28.6332 H   0  0  0  0  0  0  0  0  0  0  0  0
  -13.0411   18.5164  -37.4144 H   0  0  0  0  0  0  0  0  0  0  0  0
  -11.8471   19.6116  -36.6677 H   0  0  0  0  0  0  0  0  0  0  0  0
  -15.1721   19.5859  -28.0589 H   0  0  0  0  0  0  0  0  0  0  0  0
  -13.6144   19.8677  -27.8860 H   0  0  0  0  0  0  0  0  0  0  0  0
  1  2  1  0
  1 13  1  0
  1 19  1  0
  2  3  1  0
  2 21  1  0
  3 14  1  0
  3 20  1  0
  4 14  1  0
  4 15  2  0
  5  6  2  0
  5 12  1  0
  5 15  1  0
  6 14  1  0
  6 16  1  0
  7  8  3  0
  7 10  1  0
 13  9  1  0
  9 22  1  0
 10 24  1  0
 11 16  2  0
 11 17  1  0
 12 17  2  0
 12 18  1  0
 13 20  1  0
 22 26  1  0
 26 23  1  6
 24 26  1  0
 25 26  2  0
  1 27  1  6
  2 28  1  6
  3 29  1  1
  4 30  1  0
  8 31  1  0
  9 32  1  0
  9 33  1  0
 10 34  1  0
 10 35  1  0
 11 36  1  0
 13 37  1  1
 18 38  1  0
 18 39  1  0
 19 40  1  0
 21 41  1  0
M  CHG  1  23  -1
M  END
>  <filename_input>  (15) 
8G0V_YHT_docked.sdf

>  <pdb_id>  (15) 
8G0V_YHT

>  <pose_rank>  (15) 
14

>  <num_atoms_heavy>  (15) 
26

>  <num_torsions>  (15) 
7

>  <pose>  (15) 
[-14.60078493332782, 19.258563865707337, -29.932754587705013, -1.3300757563923629, -2.1494814422817075, 1.4187562940971343, 15.923673792435755, -18.437077748410257, -5.538081399966189, -4.6515843347223385, 10.254558728431817, -5.975095704666831, 1.6641118710542806]

>  <energy>  (15) 
-477.9709941622978

>  <inter_energy>  (15) 
-523.976153247794

>  <intra_energy>  (15) 
46.44858974428753

>  <rmsd>  (15) 
5.30933

>  <sdf_rank>  (15) 
0

$$$$

     RDKit          3D

 41 43  0  0  0  0  0  0  0  0999 V2000
  -15.5753   18.6715  -30.1826 C   0  0  1  0  0  0  0  0  0  0  0  0
  -14.7823   19.5014  -29.1707 C   0  0  2  0  0  0  0  0  0  0  0  0
  -13.3576   19.2267  -29.6408 C   0  0  2  0  0  0  0  0  0  0  0  0
  -12.6148   21.5028  -30.4813 C   0  0  0  0  0  0  0  0  0  0  0  0
  -11.9847   21.0382  -32.4611 C   0  0  0  0  0  0  0  0  0  0  0  0
  -12.3949   19.8419  -31.9008 C   0  0  0  0  0  0  0  0  0  0  0  0
  -14.3264   10.9901  -29.8039 C   0  0  0  0  0  0  0  0  0  0  0  0
  -14.0684    9.8522  -29.6139 C   0  0  0  0  0  0  0  0  0  0  0  0
  -14.8652   16.6446  -31.5872 C   0  0  0  0  0  0  0  0  0  0  0  0
  -14.6950   12.3855  -30.0509 C   0  0  0  0  0  0  0  0  0  0  0  0
  -11.9306   18.7176  -33.7414 C   0  0  0  0  0  0  0  0  0  0  0  0
  -11.5235   20.9988  -33.7909 C   0  0  0  0  0  0  0  0  0  0  0  0
  -14.6936   17.4274  -30.3079 C   0  0  1  0  0  0  0  0  0  0  0  0
  -12.8006   20.1508  -30.6251 N   0  0  0  0  0  0  0  0  0  0  0  0
  -12.1296   22.0818  -31.5534 N   0  0  0  0  0  0  0  0  0  0  0  0
  -12.3942   18.6356  -32.4988 N   0  0  0  0  0  0  0  0  0  0  0  0
  -11.5036   19.7940  -34.4121 N   0  0  0  0  0  0  0  0  0  0  0  0
  -11.1035   22.0703  -34.4598 N   0  0  0  0  0  0  0  0  0  0  0  0
  -16.8907   18.3835  -29.7221 O   0  0  0  0  0  0  0  0  0  0  0  0
  -13.3346   17.9205  -30.2098 O   0  0  0  0  0  0  0  0  0  0  0  0
  -14.9364   18.9532  -27.8818 O   0  0  0  0  0  0  0  0  0  0  0  0
  -14.6642   15.2362  -31.3442 O   0  0  0  0  0  0  0  0  0  0  0  0
  -14.0843   15.2047  -28.8640 O   0  0  0  0  0  0  0  0  0  0  0  0
  -13.5633   13.2285  -30.2052 O   0  0  0  0  0  0  0  0  0  0  0  0
  -12.2663   15.2782  -30.6880 O   0  0  0  0  0  0  0  0  0  0  0  0
  -13.5990   14.8318  -30.2159 P   0  0  1  0  0  0  0  0  0  0  0  0
  -15.7565   19.1752  -31.1436 H   0  0  0  0  0  0  0  0  0  0  0  0
  -15.0743   20.5606  -29.1184 H   0  0  0  0  0  0  0  0  0  0  0  0
  -12.7297   19.3483  -28.7458 H   0  0  0  0  0  0  0  0  0  0  0  0
  -12.8502   22.0486  -29.5557 H   0  0  0  0  0  0  0  0  0  0  0  0
  -13.8283    8.7934  -29.4371 H   0  0  0  0  0  0  0  0  0  0  0  0
  -15.8816   16.8041  -31.9765 H   0  0  0  0  0  0  0  0  0  0  0  0
  -14.1218   16.9905  -32.3204 H   0  0  0  0  0  0  0  0  0  0  0  0
  -15.2983   12.4335  -30.9694 H   0  0  0  0  0  0  0  0  0  0  0  0
  -15.2596   12.7413  -29.1765 H   0  0  0  0  0  0  0  0  0  0  0  0
  -11.8925   17.7685  -34.2960 H   0  0  0  0  0  0  0  0  0  0  0  0
  -14.9732   16.7115  -29.5210 H   0  0  0  0  0  0  0  0  0  0  0  0
  -10.7777   21.9752  -35.4323 H   0  0  0  0  0  0  0  0  0  0  0  0
  -11.1044   22.9944  -34.0050 H   0  0  0  0  0  0  0  0  0  0  0  0
  -16.9007   18.3813  -28.7321 H   0  0  0  0  0  0  0  0  0  0  0  0
  -14.7414   19.6467  -27.2027 H   0  0  0  0  0  0  0  0  0  0  0  0
  1  2  1  0
  1 13  1  0
  1 19  1  0
  2  3  1  0
  2 21  1  0
  3 14  1  0
  3 20  1  0
  4 14  1  0
  4 15  2  0
  5  6  2  0
  5 12  1  0
  5 15  1  0
  6 14  1  0
  6 16  1  0
  7  8  3  0
  7 10  1  0
 13  9  1  0
  9 22  1  0
 10 24  1  0
 11 16  2  0
 11 17  1  0
 12 17  2  0
 12 18  1  0
 13 20  1  0
 22 26  1  0
 26 23  1  1
 24 26  1  0
 25 26  2  0
  1 27  1  6
  2 28  1  1
  3 29  1  1
  4 30  1  0
  8 31  1  0
  9 32  1  0
  9 33  1  0
 10 34  1  0
 10 35  1  0
 11 36  1  0
 13 37  1  1
 18 38  1  0
 18 39  1  0
 19 40  1  0
 21 41  1  0
M  CHG  1  23  -1
M  END
>  <filename_input>  (16) 
8G0V_YHT_docked.sdf

>  <pdb_id>  (16) 
8G0V_YHT

>  <pose_rank>  (16) 
15

>  <num_atoms_heavy>  (16) 
26

>  <num_torsions>  (16) 
7

>  <pose>  (16) 
[-15.575299924237797, 18.67153366969988, -30.182602930138422, -1.1856657804966984, -2.949275756013128, 0.6668555490659809, -3.262125840863825, 0.6625543786287871, 2.6599599027720204, 2.0558585311416024, -2.0744005655508984, -0.6559900904337638, -4.503330044933798]

>  <energy>  (16) 
-502.3999570841403

>  <inter_energy>  (16) 
-582.6912149354391

>  <intra_energy>  (16) 
84.89604896917407

>  <rmsd>  (16) 
4.87801

>  <sdf_rank>  (16) 
0

$$$$

     RDKit          3D

 41 43  0  0  0  0  0  0  0  0999 V2000
  -14.0273   18.7504  -28.9029 C   0  0  1  0  0  0  0  0  0  0  0  0
  -15.1518   17.8103  -29.3424 C   0  0  2  0  0  0  0  0  0  0  0  0
  -14.7565   17.5629  -30.7945 C   0  0  2  0  0  0  0  0  0  0  0  0
  -12.5715   16.4469  -31.4416 C   0  0  0  0  0  0  0  0  0  0  0  0
  -13.1062   14.3879  -31.3570 C   0  0  0  0  0  0  0  0  0  0  0  0
  -14.2405   15.0918  -30.9948 C   0  0  0  0  0  0  0  0  0  0  0  0
  -10.7079   23.7296  -34.9123 C   0  0  0  0  0  0  0  0  0  0  0  0
  -10.2701   24.7907  -35.1950 C   0  0  0  0  0  0  0  0  0  0  0  0
  -12.5168   20.2937  -30.2894 C   0  0  0  0  0  0  0  0  0  0  0  0
  -11.2710   22.4123  -34.6100 C   0  0  0  0  0  0  0  0  0  0  0  0
  -15.4083   13.2410  -30.7153 C   0  0  0  0  0  0  0  0  0  0  0  0
  -13.2052   12.9837  -31.3876 C   0  0  0  0  0  0  0  0  0  0  0  0
  -13.8625   19.6245  -30.1479 C   0  0  1  0  0  0  0  0  0  0  0  0
  -13.8873   16.4181  -31.0532 N   0  0  0  0  0  0  0  0  0  0  0  0
  -12.0572   15.2565  -31.6382 N   0  0  0  0  0  0  0  0  0  0  0  0
  -15.4356   14.5684  -30.6621 N   0  0  0  0  0  0  0  0  0  0  0  0
  -14.3956   12.4316  -31.0470 N   0  0  0  0  0  0  0  0  0  0  0  0
  -12.1993   12.1787  -31.7224 N   0  0  0  0  0  0  0  0  0  0  0  0
  -14.3757   19.4913  -27.7388 O   0  0  0  0  0  0  0  0  0  0  0  0
  -14.0888   18.7303  -31.2655 O   0  0  0  0  0  0  0  0  0  0  0  0
  -16.3803   18.5002  -29.3295 O   0  0  0  0  0  0  0  0  0  0  0  0
  -12.2663   20.6292  -31.6706 O   0  0  0  0  0  0  0  0  0  0  0  0
  -10.2001   22.0780  -32.0175 O   0  0  0  0  0  0  0  0  0  0  0  0
  -12.1277   22.4329  -33.4782 O   0  0  0  0  0  0  0  0  0  0  0  0
  -12.4039   23.0448  -31.0979 O   0  0  0  0  0  0  0  0  0  0  0  0
  -11.6834   22.0915  -31.9756 P   0  0  1  0  0  0  0  0  0  0  0  0
  -13.0993   18.2423  -28.6019 H   0  0  0  0  0  0  0  0  0  0  0  0
  -15.2683   16.9126  -28.7174 H   0  0  0  0  0  0  0  0  0  0  0  0
  -15.6978   17.3316  -31.3146 H   0  0  0  0  0  0  0  0  0  0  0  0
  -12.0026   17.3789  -31.5752 H   0  0  0  0  0  0  0  0  0  0  0  0
   -9.8627   25.7780  -35.4580 H   0  0  0  0  0  0  0  0  0  0  0  0
  -12.5032   21.2125  -29.6848 H   0  0  0  0  0  0  0  0  0  0  0  0
  -11.7352   19.6020  -29.9421 H   0  0  0  0  0  0  0  0  0  0  0  0
  -11.8462   22.0663  -35.4814 H   0  0  0  0  0  0  0  0  0  0  0  0
  -10.4340   21.7357  -34.3827 H   0  0  0  0  0  0  0  0  0  0  0  0
  -16.3494   12.7372  -30.4495 H   0  0  0  0  0  0  0  0  0  0  0  0
  -14.5702   20.4646  -30.0899 H   0  0  0  0  0  0  0  0  0  0  0  0
  -12.3358   11.1578  -31.7254 H   0  0  0  0  0  0  0  0  0  0  0  0
  -11.2846   12.5768  -31.9787 H   0  0  0  0  0  0  0  0  0  0  0  0
  -14.1316   18.9721  -26.9320 H   0  0  0  0  0  0  0  0  0  0  0  0
  -16.6606   18.6577  -28.3931 H   0  0  0  0  0  0  0  0  0  0  0  0
  1  2  1  0
  1 13  1  0
  1 19  1  0
  2  3  1  0
  2 21  1  0
  3 14  1  0
  3 20  1  0
  4 14  1  0
  4 15  2  0
  5  6  2  0
  5 12  1  0
  5 15  1  0
  6 14  1  0
  6 16  1  0
  7  8  3  0
  7 10  1  0
 13  9  1  0
  9 22  1  0
 10 24  1  0
 11 16  2  0
 11 17  1  0
 12 17  2  0
 12 18  1  0
 13 20  1  0
 22 26  1  0
 26 23  1  6
 24 26  1  0
 25 26  2  0
  1 27  1  1
  2 28  1  1
  3 29  1  6
  4 30  1  0
  8 31  1  0
  9 32  1  0
  9 33  1  0
 10 34  1  0
 10 35  1  0
 11 36  1  0
 13 37  1  1
 18 38  1  0
 18 39  1  0
 19 40  1  0
 21 41  1  0
M  CHG  1  23  -1
M  END
>  <filename_input>  (17) 
8G0V_YHT_docked.sdf

>  <pdb_id>  (17) 
8G0V_YHT

>  <pose_rank>  (17) 
16

>  <num_atoms_heavy>  (17) 
26

>  <num_torsions>  (17) 
7

>  <pose>  (17) 
[-14.027273281349553, 18.75041593597545, -28.90294622403565, -2.025671916086942, 0.14124785031994305, -1.6660894956975385, 6.337493323250834, -0.3102418160989301, -0.6961184482633269, 2.4691861566649034, 3.325245001609172, 0.6311227315545423, 2.5075402226640207]

>  <energy>  (17) 
-579.1230406117905

>  <inter_energy>  (17) 
-577.2442795643435

>  <intra_energy>  (17) 
3.3467141110585574

>  <rmsd>  (17) 
7.62795

>  <sdf_rank>  (17) 
0

$$$$

     RDKit          3D

 41 43  0  0  0  0  0  0  0  0999 V2000
  -15.3515   17.1670  -29.6192 C   0  0  1  0  0  0  0  0  0  0  0  0
  -14.7109   18.4304  -29.0405 C   0  0  2  0  0  0  0  0  0  0  0  0
  -13.2879   18.2891  -29.5707 C   0  0  2  0  0  0  0  0  0  0  0  0
  -13.0202   20.2442  -31.1659 C   0  0  0  0  0  0  0  0  0  0  0  0
  -12.5602   19.2440  -32.9882 C   0  0  0  0  0  0  0  0  0  0  0  0
  -12.7064   18.2523  -32.0351 C   0  0  0  0  0  0  0  0  0  0  0  0
  -16.3355   10.9473  -32.2387 C   0  0  0  0  0  0  0  0  0  0  0  0
  -16.8684   10.7465  -33.2746 C   0  0  0  0  0  0  0  0  0  0  0  0
  -14.2829   14.9563  -30.3652 C   0  0  0  0  0  0  0  0  0  0  0  0
  -15.6524   11.1493  -30.9594 C   0  0  0  0  0  0  0  0  0  0  0  0
  -12.2876   16.6576  -33.5011 C   0  0  0  0  0  0  0  0  0  0  0  0
  -12.2573   18.8329  -34.3004 C   0  0  0  0  0  0  0  0  0  0  0  0
  -14.2225   16.1496  -29.4426 C   0  0  1  0  0  0  0  0  0  0  0  0
  -13.0041   18.9057  -30.8639 N   0  0  0  0  0  0  0  0  0  0  0  0
  -12.7620   20.4999  -32.4261 N   0  0  0  0  0  0  0  0  0  0  0  0
  -12.5837   16.9263  -32.2338 N   0  0  0  0  0  0  0  0  0  0  0  0
  -12.1187   17.5031  -34.5244 N   0  0  0  0  0  0  0  0  0  0  0  0
  -12.0943   19.6736  -35.3195 N   0  0  0  0  0  0  0  0  0  0  0  0
  -16.5433   16.8089  -28.9286 O   0  0  0  0  0  0  0  0  0  0  0  0
  -13.0044   16.8971  -29.6818 O   0  0  0  0  0  0  0  0  0  0  0  0
  -14.6704   18.3415  -27.6348 O   0  0  0  0  0  0  0  0  0  0  0  0
  -13.1904   14.0541  -30.0905 O   0  0  0  0  0  0  0  0  0  0  0  0
  -13.2226   11.6221  -29.3336 O   0  0  0  0  0  0  0  0  0  0  0  0
  -14.9301   12.3706  -30.9146 O   0  0  0  0  0  0  0  0  0  0  0  0
  -12.6009   12.2918  -31.7424 O   0  0  0  0  0  0  0  0  0  0  0  0
  -13.3865   12.5178  -30.5055 P   0  0  1  0  0  0  0  0  0  0  0  0
  -15.6912   17.2638  -30.6610 H   0  0  0  0  0  0  0  0  0  0  0  0
  -15.2286   19.3658  -29.2995 H   0  0  0  0  0  0  0  0  0  0  0  0
  -12.6564   18.8297  -28.8504 H   0  0  0  0  0  0  0  0  0  0  0  0
  -13.2295   21.0274  -30.4225 H   0  0  0  0  0  0  0  0  0  0  0  0
  -17.3642   10.5596  -34.2386 H   0  0  0  0  0  0  0  0  0  0  0  0
  -15.2360   14.4285  -30.2137 H   0  0  0  0  0  0  0  0  0  0  0  0
  -14.2058   15.3047  -31.4057 H   0  0  0  0  0  0  0  0  0  0  0  0
  -16.4033   11.1541  -30.1556 H   0  0  0  0  0  0  0  0  0  0  0  0
  -14.9298   10.3294  -30.8337 H   0  0  0  0  0  0  0  0  0  0  0  0
  -12.1642   15.5915  -33.7426 H   0  0  0  0  0  0  0  0  0  0  0  0
  -14.2933   15.7094  -28.4370 H   0  0  0  0  0  0  0  0  0  0  0  0
  -11.8734   19.3094  -36.2573 H   0  0  0  0  0  0  0  0  0  0  0  0
  -12.1890   20.6883  -35.1702 H   0  0  0  0  0  0  0  0  0  0  0  0
  -16.3858   16.8562  -27.9524 H   0  0  0  0  0  0  0  0  0  0  0  0
  -15.0475   19.1678  -27.2409 H   0  0  0  0  0  0  0  0  0  0  0  0
  1  2  1  0
  1 13  1  0
  1 19  1  0
  2  3  1  0
  2 21  1  0
  3 14  1  0
  3 20  1  0
  4 14  1  0
  4 15  2  0
  5  6  2  0
  5 12  1  0
  5 15  1  0
  6 14  1  0
  6 16  1  0
  7  8  3  0
  7 10  1  0
 13  9  1  0
  9 22  1  0
 10 24  1  0
 11 16  2  0
 11 17  1  0
 12 17  2  0
 12 18  1  0
 13 20  1  0
 22 26  1  0
 26 23  1  1
 24 26  1  0
 25 26  2  0
  1 27  1  6
  2 28  1  1
  3 29  1  1
  4 30  1  0
  8 31  1  0
  9 32  1  0
  9 33  1  0
 10 34  1  0
 10 35  1  0
 11 36  1  0
 13 37  1  1
 18 38  1  0
 18 39  1  0
 19 40  1  0
 21 41  1  0
M  CHG  1  23  -1
M  END
>  <filename_input>  (18) 
8G0V_YHT_docked.sdf

>  <pdb_id>  (18) 
8G0V_YHT

>  <pose_rank>  (18) 
17

>  <num_atoms_heavy>  (18) 
26

>  <num_torsions>  (18) 
7

>  <pose>  (18) 
[-15.351532915657813, 17.166998728487588, -29.619205699266864, -0.8103306412249632, -2.9889101096771706, 1.2277710038694467, -3.169709295752814, -6.173927339601933, -0.3263350862687191, 5.0020177598616895, 2.365085237515588, 0.04560301942452425, 0.577347853791899]

>  <energy>  (18) 
-579.5618571416068

>  <inter_energy>  (18) 
-611.4920573676858

>  <intra_energy>  (18) 
37.203934337319765

>  <rmsd>  (18) 
5.92466

>  <sdf_rank>  (18) 
0

$$$$

     RDKit          3D

 41 43  0  0  0  0  0  0  0  0999 V2000
  -12.4221   19.8049  -31.0853 C   0  0  1  0  0  0  0  0  0  0  0  0
  -13.4421   19.1614  -30.1435 C   0  0  2  0  0  0  0  0  0  0  0  0
  -14.0778   18.1380  -31.0787 C   0  0  2  0  0  0  0  0  0  0  0  0
  -12.1950   16.4868  -31.4877 C   0  0  0  0  0  0  0  0  0  0  0  0
  -13.1395   14.6401  -31.0079 C   0  0  0  0  0  0  0  0  0  0  0  0
  -14.0903   15.6217  -30.7939 C   0  0  0  0  0  0  0  0  0  0  0  0
  -15.4107   18.0606  -35.9921 C   0  0  0  0  0  0  0  0  0  0  0  0
  -15.6902   17.4323  -35.0305 C   0  0  0  0  0  0  0  0  0  0  0  0
  -12.3868   19.9467  -33.6473 C   0  0  0  0  0  0  0  0  0  0  0  0
  -15.0206   18.8540  -37.1592 C   0  0  0  0  0  0  0  0  0  0  0  0
  -15.6038   14.1444  -30.1660 C   0  0  0  0  0  0  0  0  0  0  0  0
  -13.5270   13.3082  -30.7661 C   0  0  0  0  0  0  0  0  0  0  0  0
  -13.2187   19.8730  -32.3898 C   0  0  1  0  0  0  0  0  0  0  0  0
  -13.4734   16.8087  -31.1069 N   0  0  0  0  0  0  0  0  0  0  0  0
  -11.9449   15.2000  -31.4476 N   0  0  0  0  0  0  0  0  0  0  0  0
  -15.3547   15.4334  -30.3713 N   0  0  0  0  0  0  0  0  0  0  0  0
  -14.7925   13.0929  -30.3302 N   0  0  0  0  0  0  0  0  0  0  0  0
  -12.7218   12.2618  -30.9343 N   0  0  0  0  0  0  0  0  0  0  0  0
  -11.9970   21.0808  -30.6197 O   0  0  0  0  0  0  0  0  0  0  0  0
  -14.0232   18.6679  -32.4003 O   0  0  0  0  0  0  0  0  0  0  0  0
  -14.4246   20.1073  -29.7890 O   0  0  0  0  0  0  0  0  0  0  0  0
  -12.9192   19.0596  -34.6536 O   0  0  0  0  0  0  0  0  0  0  0  0
  -12.1184   18.1876  -36.9090 O   0  0  0  0  0  0  0  0  0  0  0  0
  -13.9784   19.7732  -36.8692 O   0  0  0  0  0  0  0  0  0  0  0  0
  -11.7623   20.6357  -36.1897 O   0  0  0  0  0  0  0  0  0  0  0  0
  -12.5782   19.3977  -36.1834 P   0  0  1  0  0  0  0  0  0  0  0  0
  -11.4766   19.2510  -31.1810 H   0  0  0  0  0  0  0  0  0  0  0  0
  -13.0157   18.7603  -29.2122 H   0  0  0  0  0  0  0  0  0  0  0  0
  -15.0945   17.9826  -30.6885 H   0  0  0  0  0  0  0  0  0  0  0  0
  -11.4514   17.2361  -31.7970 H   0  0  0  0  0  0  0  0  0  0  0  0
  -15.9503   16.8477  -34.1357 H   0  0  0  0  0  0  0  0  0  0  0  0
  -12.3985   20.9779  -34.0301 H   0  0  0  0  0  0  0  0  0  0  0  0
  -11.3560   19.6431  -33.4124 H   0  0  0  0  0  0  0  0  0  0  0  0
  -14.6784   18.1714  -37.9511 H   0  0  0  0  0  0  0  0  0  0  0  0
  -15.8991   19.4347  -37.4768 H   0  0  0  0  0  0  0  0  0  0  0  0
  -16.6182   13.9089  -29.8117 H   0  0  0  0  0  0  0  0  0  0  0  0
  -13.8011   20.8061  -32.4037 H   0  0  0  0  0  0  0  0  0  0  0  0
  -13.0659   11.3106  -30.7398 H   0  0  0  0  0  0  0  0  0  0  0  0
  -11.7545   12.4032  -31.2588 H   0  0  0  0  0  0  0  0  0  0  0  0
  -11.9949   21.0870  -29.6297 H   0  0  0  0  0  0  0  0  0  0  0  0
  -14.4855   20.1660  -28.8026 H   0  0  0  0  0  0  0  0  0  0  0  0
  1  2  1  0
  1 13  1  0
  1 19  1  0
  2  3  1  0
  2 21  1  0
  3 14  1  0
  3 20  1  0
  4 14  1  0
  4 15  2  0
  5  6  2  0
  5 12  1  0
  5 15  1  0
  6 14  1  0
  6 16  1  0
  7  8  3  0
  7 10  1  0
 13  9  1  0
  9 22  1  0
 10 24  1  0
 11 16  2  0
 11 17  1  0
 12 17  2  0
 12 18  1  0
 13 20  1  0
 22 26  1  0
 26 23  1  6
 24 26  1  0
 25 26  2  0
  1 27  1  6
  2 28  1  1
  3 29  1  1
  4 30  1  0
  8 31  1  0
  9 32  1  0
  9 33  1  0
 10 34  1  0
 10 35  1  0
 11 36  1  0
 13 37  1  1
 18 38  1  0
 18 39  1  0
 19 40  1  0
 21 41  1  0
M  CHG  1  23  -1
M  END
>  <filename_input>  (19) 
8G0V_YHT_docked.sdf

>  <pdb_id>  (19) 
8G0V_YHT

>  <pose_rank>  (19) 
18

>  <num_atoms_heavy>  (19) 
26

>  <num_torsions>  (19) 
7

>  <pose>  (19) 
[-12.422138135012755, 19.804923111320086, -31.08527110705105, 2.9030350291338944, 0.011129223000596896, 0.9427556179177097, -11.677526292381184, 24.453839807688, -19.17048745185959, 3.1745951348170767, 3.913491158297387, 9.482173077578727, -1.8964105825752389]

>  <energy>  (19) 
-459.98785747917333

>  <inter_energy>  (19) 
-479.77092820603286

>  <intra_energy>  (19) 
25.0017225387147

>  <rmsd>  (19) 
7.7648

>  <sdf_rank>  (19) 
0

$$$$

     RDKit          3D

 41 43  0  0  0  0  0  0  0  0999 V2000
  -13.6562   18.0204  -33.0624 C   0  0  1  0  0  0  0  0  0  0  0  0
  -14.7343   16.9701  -33.3380 C   0  0  2  0  0  0  0  0  0  0  0  0
  -14.1335   15.7613  -32.6280 C   0  0  2  0  0  0  0  0  0  0  0  0
  -13.7772   14.9236  -30.2595 C   0  0  0  0  0  0  0  0  0  0  0  0
  -15.5850   15.5370  -29.3170 C   0  0  0  0  0  0  0  0  0  0  0  0
  -15.6715   15.9715  -30.6273 C   0  0  0  0  0  0  0  0  0  0  0  0
  -13.0188   19.8052  -28.4935 C   0  0  0  0  0  0  0  0  0  0  0  0
  -12.8528   19.6103  -27.3394 C   0  0  0  0  0  0  0  0  0  0  0  0
  -11.1657   17.7380  -32.5118 C   0  0  0  0  0  0  0  0  0  0  0  0
  -13.2575   20.0063  -29.9241 C   0  0  0  0  0  0  0  0  0  0  0  0
  -17.6643   16.8583  -30.2956 C   0  0  0  0  0  0  0  0  0  0  0  0
  -16.6784   15.8164  -28.4750 C   0  0  0  0  0  0  0  0  0  0  0  0
  -12.3806   17.1907  -33.2212 C   0  0  1  0  0  0  0  0  0  0  0  0
  -14.5028   15.5707  -31.2279 N   0  0  0  0  0  0  0  0  0  0  0  0
  -14.3822   14.8746  -29.0969 N   0  0  0  0  0  0  0  0  0  0  0  0
  -16.6986   16.6421  -31.1825 N   0  0  0  0  0  0  0  0  0  0  0  0
  -17.7212   16.4996  -29.0077 N   0  0  0  0  0  0  0  0  0  0  0  0
  -16.7374   15.4552  -27.1952 N   0  0  0  0  0  0  0  0  0  0  0  0
  -13.7318   19.1134  -33.9708 O   0  0  0  0  0  0  0  0  0  0  0  0
  -12.7152   15.8846  -32.6901 O   0  0  0  0  0  0  0  0  0  0  0  0
  -14.7853   16.6923  -34.7185 O   0  0  0  0  0  0  0  0  0  0  0  0
  -10.9255   19.1043  -32.9101 O   0  0  0  0  0  0  0  0  0  0  0  0
  -12.9411   20.6557  -32.7717 O   0  0  0  0  0  0  0  0  0  0  0  0
  -12.1728   19.5622  -30.7250 O   0  0  0  0  0  0  0  0  0  0  0  0
  -10.6752   21.2669  -31.7089 O   0  0  0  0  0  0  0  0  0  0  0  0
  -11.6870   20.2518  -32.0888 P   0  0  1  0  0  0  0  0  0  0  0  0
  -13.7372   18.5108  -32.0811 H   0  0  0  0  0  0  0  0  0  0  0  0
  -15.7468   17.2590  -33.0196 H   0  0  0  0  0  0  0  0  0  0  0  0
  -14.5412   14.8854  -33.1540 H   0  0  0  0  0  0  0  0  0  0  0  0
  -12.7836   14.4878  -30.4409 H   0  0  0  0  0  0  0  0  0  0  0  0
  -12.6984   19.4290  -26.2655 H   0  0  0  0  0  0  0  0  0  0  0  0
  -11.3327   17.7010  -31.4252 H   0  0  0  0  0  0  0  0  0  0  0  0
  -10.2902   17.1284  -32.7799 H   0  0  0  0  0  0  0  0  0  0  0  0
  -14.1604   19.4482  -30.2127 H   0  0  0  0  0  0  0  0  0  0  0  0
  -13.3775   21.0864  -30.0939 H   0  0  0  0  0  0  0  0  0  0  0  0
  -18.5387   17.4089  -30.6728 H   0  0  0  0  0  0  0  0  0  0  0  0
  -12.0875   17.1866  -34.2814 H   0  0  0  0  0  0  0  0  0  0  0  0
  -17.5668   15.6900  -26.6315 H   0  0  0  0  0  0  0  0  0  0  0  0
  -15.9535   14.9409  -26.7687 H   0  0  0  0  0  0  0  0  0  0  0  0
  -13.7904   19.9612  -33.4628 H   0  0  0  0  0  0  0  0  0  0  0  0
  -14.9624   15.7279  -34.8548 H   0  0  0  0  0  0  0  0  0  0  0  0
  1  2  1  0
  1 13  1  0
  1 19  1  0
  2  3  1  0
  2 21  1  0
  3 14  1  0
  3 20  1  0
  4 14  1  0
  4 15  2  0
  5  6  2  0
  5 12  1  0
  5 15  1  0
  6 14  1  0
  6 16  1  0
  7  8  3  0
  7 10  1  0
 13  9  1  0
  9 22  1  0
 10 24  1  0
 11 16  2  0
 11 17  1  0
 12 17  2  0
 12 18  1  0
 13 20  1  0
 22 26  1  0
 26 23  1  6
 24 26  1  0
 25 26  2  0
  1 27  1  1
  2 28  1  1
  3 29  1  6
  4 30  1  0
  8 31  1  0
  9 32  1  0
  9 33  1  0
 10 34  1  0
 10 35  1  0
 11 36  1  0
 13 37  1  6
 18 38  1  0
 18 39  1  0
 19 40  1  0
 21 41  1  0
M  CHG  1  23  -1
M  END
>  <filename_input>  (20) 
8G0V_YHT_docked.sdf

>  <pdb_id>  (20) 
8G0V_YHT

>  <pose_rank>  (20) 
19

>  <num_atoms_heavy>  (20) 
26

>  <num_torsions>  (20) 
7

>  <pose>  (20) 
[-13.65620219665815, 18.020423514568797, -33.06242982821253, -1.2713704444518341, -1.3835407123146108, -3.380859444924248, -0.7119462171504566, 2.27966016819785, -1.5265553385663992, -0.808547050783439, -3.853558312537307, -0.25606359912887033, 2.8144440954741157]

>  <energy>  (20) 
-359.6201843280683

>  <inter_energy>  (20) 
-502.96000345110053

>  <intra_energy>  (20) 
142.5945438199027

>  <rmsd>  (20) 
6.48343

>  <sdf_rank>  (20) 
0

$$$$

     RDKit          3D

 41 43  0  0  0  0  0  0  0  0999 V2000
  -12.1794   15.3638  -32.5645 C   0  0  1  0  0  0  0  0  0  0  0  0
  -12.6466   14.2801  -31.5903 C   0  0  2  0  0  0  0  0  0  0  0  0
  -13.0844   15.1384  -30.4080 C   0  0  2  0  0  0  0  0  0  0  0  0
  -15.5915   14.7747  -30.5526 C   0  0  0  0  0  0  0  0  0  0  0  0
  -16.3216   16.7612  -30.3221 C   0  0  0  0  0  0  0  0  0  0  0  0
  -14.9439   16.8488  -30.2355 C   0  0  0  0  0  0  0  0  0  0  0  0
  -14.3542   18.8446  -37.2138 C   0  0  0  0  0  0  0  0  0  0  0  0
  -15.3070   18.4943  -37.8195 C   0  0  0  0  0  0  0  0  0  0  0  0
  -11.3744   17.7597  -32.1207 C   0  0  0  0  0  0  0  0  0  0  0  0
  -13.1755   19.2336  -36.4371 C   0  0  0  0  0  0  0  0  0  0  0  0
  -15.0117   19.0344  -29.9427 C   0  0  0  0  0  0  0  0  0  0  0  0
  -17.0490   17.9614  -30.2074 C   0  0  0  0  0  0  0  0  0  0  0  0
  -11.4836   16.3415  -31.6153 C   0  0  1  0  0  0  0  0  0  0  0  0
  -14.4813   15.5640  -30.3865 N   0  0  0  0  0  0  0  0  0  0  0  0
  -16.7190   15.4439  -30.5236 N   0  0  0  0  0  0  0  0  0  0  0  0
  -14.2229   17.9702  -30.0473 N   0  0  0  0  0  0  0  0  0  0  0  0
  -16.3466   19.1035  -30.0074 N   0  0  0  0  0  0  0  0  0  0  0  0
  -18.3765   18.0309  -30.2768 N   0  0  0  0  0  0  0  0  0  0  0  0
  -11.3141   14.8427  -33.5671 O   0  0  0  0  0  0  0  0  0  0  0  0
  -12.2734   16.3100  -30.4008 O   0  0  0  0  0  0  0  0  0  0  0  0
  -11.5463   13.4981  -31.1861 O   0  0  0  0  0  0  0  0  0  0  0  0
  -12.4266   18.0367  -33.0690 O   0  0  0  0  0  0  0  0  0  0  0  0
  -11.0396   19.4980  -34.6277 O   0  0  0  0  0  0  0  0  0  0  0  0
  -13.4406   19.3056  -35.0443 O   0  0  0  0  0  0  0  0  0  0  0  0
  -12.7569   20.4998  -32.9892 O   0  0  0  0  0  0  0  0  0  0  0  0
  -12.3268   19.4075  -33.8949 P   0  0  1  0  0  0  0  0  0  0  0  0
  -12.9854   15.8270  -33.1524 H   0  0  0  0  0  0  0  0  0  0  0  0
  -13.4081   13.5977  -31.9958 H   0  0  0  0  0  0  0  0  0  0  0  0
  -12.9672   14.4939  -29.5243 H   0  0  0  0  0  0  0  0  0  0  0  0
  -15.5406   13.6853  -30.6962 H   0  0  0  0  0  0  0  0  0  0  0  0
  -16.1936   18.1683  -38.3830 H   0  0  0  0  0  0  0  0  0  0  0  0
  -11.4587   18.4547  -31.2722 H   0  0  0  0  0  0  0  0  0  0  0  0
  -10.4018   17.8881  -32.6183 H   0  0  0  0  0  0  0  0  0  0  0  0
  -12.3809   18.4921  -36.6069 H   0  0  0  0  0  0  0  0  0  0  0  0
  -12.8716   20.2366  -36.7713 H   0  0  0  0  0  0  0  0  0  0  0  0
  -14.4955   19.9921  -29.7802 H   0  0  0  0  0  0  0  0  0  0  0  0
  -10.4377   16.0272  -31.4834 H   0  0  0  0  0  0  0  0  0  0  0  0
  -18.8500   18.9409  -30.1852 H   0  0  0  0  0  0  0  0  0  0  0  0
  -18.9301   17.1745  -30.4221 H   0  0  0  0  0  0  0  0  0  0  0  0
  -10.5502   14.3826  -33.1371 H   0  0  0  0  0  0  0  0  0  0  0  0
  -11.5069   13.4701  -30.1973 H   0  0  0  0  0  0  0  0  0  0  0  0
  1  2  1  0
  1 13  1  0
  1 19  1  0
  2  3  1  0
  2 21  1  0
  3 14  1  0
  3 20  1  0
  4 14  1  0
  4 15  2  0
  5  6  2  0
  5 12  1  0
  5 15  1  0
  6 14  1  0
  6 16  1  0
  7  8  3  0
  7 10  1  0
 13  9  1  0
  9 22  1  0
 10 24  1  0
 11 16  2  0
 11 17  1  0
 12 17  2  0
 12 18  1  0
 13 20  1  0
 22 26  1  0
 26 23  1  6
 24 26  1  0
 25 26  2  0
  1 27  1  6
  2 28  1  6
  3 29  1  1
  4 30  1  0
  8 31  1  0
  9 32  1  0
  9 33  1  0
 10 34  1  0
 10 35  1  0
 11 36  1  0
 13 37  1  1
 18 38  1  0
 18 39  1  0
 19 40  1  0
 21 41  1  0
M  CHG  1  23  -1
M  END
>  <filename_input>  (21) 
8G0V_YHT_docked.sdf

>  <pdb_id>  (21) 
8G0V_YHT

>  <pose_rank>  (21) 
20

>  <num_atoms_heavy>  (21) 
26

>  <num_torsions>  (21) 
7

>  <pose>  (21) 
[-12.179353028178435, 15.363751942941743, -32.56447728832536, 1.7766214646349296, -2.627785323772265, -1.9746365302653819, -16.003796594996647, -40.30409381873804, -56.28053012902908, 33.255375625252306, -9.397361094080447, -1.0919793215650113, -2.692602529197281]

>  <energy>  (21) 
-527.7439094390911

>  <inter_energy>  (21) 
-540.8719079239313

>  <intra_energy>  (21) 
26.699438390508682

>  <rmsd>  (21) 
6.86966

>  <sdf_rank>  (21) 
0

$$$$

     RDKit          3D

 41 43  0  0  0  0  0  0  0  0999 V2000
  -13.4813   18.8082  -28.4811 C   0  0  1  0  0  0  0  0  0  0  0  0
  -14.4669   19.9746  -28.5794 C   0  0  2  0  0  0  0  0  0  0  0  0
  -15.1008   19.6899  -29.9371 C   0  0  2  0  0  0  0  0  0  0  0  0
  -17.5563   19.2143  -30.3648 C   0  0  0  0  0  0  0  0  0  0  0  0
  -17.7315   17.2165  -29.6500 C   0  0  0  0  0  0  0  0  0  0  0  0
  -16.4047   17.5681  -29.4785 C   0  0  0  0  0  0  0  0  0  0  0  0
  -12.0851   13.3553  -31.6950 C   0  0  0  0  0  0  0  0  0  0  0  0
  -12.7597   12.4529  -31.3372 C   0  0  0  0  0  0  0  0  0  0  0  0
  -12.4078   17.3821  -30.3249 C   0  0  0  0  0  0  0  0  0  0  0  0
  -11.2384   14.4833  -32.0882 C   0  0  0  0  0  0  0  0  0  0  0  0
  -15.9015   15.5996  -28.6186 C   0  0  0  0  0  0  0  0  0  0  0  0
  -18.1109   15.9244  -29.2390 C   0  0  0  0  0  0  0  0  0  0  0  0
  -12.9719   18.7229  -29.9214 C   0  0  1  0  0  0  0  0  0  0  0  0
  -16.3010   18.8576  -29.9406 N   0  0  0  0  0  0  0  0  0  0  0  0
  -18.4500   18.2668  -30.2108 N   0  0  0  0  0  0  0  0  0  0  0  0
  -15.4321   16.7950  -28.9597 N   0  0  0  0  0  0  0  0  0  0  0  0
  -17.1475   15.1227  -28.7223 N   0  0  0  0  0  0  0  0  0  0  0  0
  -19.3514   15.4517  -29.3375 N   0  0  0  0  0  0  0  0  0  0  0  0
  -12.4490   19.0604  -27.5345 O   0  0  0  0  0  0  0  0  0  0  0  0
  -14.1211   19.0425  -30.7442 O   0  0  0  0  0  0  0  0  0  0  0  0
  -13.7583   21.1893  -28.6678 O   0  0  0  0  0  0  0  0  0  0  0  0
  -11.9060   17.4355  -31.6770 O   0  0  0  0  0  0  0  0  0  0  0  0
  -12.7324   17.3423  -34.0847 O   0  0  0  0  0  0  0  0  0  0  0  0
  -11.8435   15.2986  -33.0804 O   0  0  0  0  0  0  0  0  0  0  0  0
  -13.9782   16.1525  -32.1690 O   0  0  0  0  0  0  0  0  0  0  0  0
  -12.7143   16.6140  -32.7919 P   0  0  1  0  0  0  0  0  0  0  0  0
  -13.9221   17.8677  -28.1189 H   0  0  0  0  0  0  0  0  0  0  0  0
  -15.1639   20.0573  -27.7325 H   0  0  0  0  0  0  0  0  0  0  0  0
  -15.4301   20.6698  -30.3131 H   0  0  0  0  0  0  0  0  0  0  0  0
  -17.7905   20.2001  -30.7929 H   0  0  0  0  0  0  0  0  0  0  0  0
  -13.3875   11.6132  -31.0043 H   0  0  0  0  0  0  0  0  0  0  0  0
  -11.5868   17.1141  -29.6436 H   0  0  0  0  0  0  0  0  0  0  0  0
  -13.2058   16.6271  -30.2693 H   0  0  0  0  0  0  0  0  0  0  0  0
  -11.0375   15.0999  -31.1997 H   0  0  0  0  0  0  0  0  0  0  0  0
  -10.3112   14.0722  -32.5140 H   0  0  0  0  0  0  0  0  0  0  0  0
  -15.1629   14.9053  -28.1914 H   0  0  0  0  0  0  0  0  0  0  0  0
  -12.1236   19.4129  -30.0411 H   0  0  0  0  0  0  0  0  0  0  0  0
  -19.5651   14.4960  -29.0184 H   0  0  0  0  0  0  0  0  0  0  0  0
  -20.0974   16.0416  -29.7328 H   0  0  0  0  0  0  0  0  0  0  0  0
  -12.8128   18.9715  -26.6180 H   0  0  0  0  0  0  0  0  0  0  0  0
  -13.5628   21.5244  -27.7569 H   0  0  0  0  0  0  0  0  0  0  0  0
  1  2  1  0
  1 13  1  0
  1 19  1  0
  2  3  1  0
  2 21  1  0
  3 14  1  0
  3 20  1  0
  4 14  1  0
  4 15  2  0
  5  6  2  0
  5 12  1  0
  5 15  1  0
  6 14  1  0
  6 16  1  0
  7  8  3  0
  7 10  1  0
 13  9  1  0
  9 22  1  0
 10 24  1  0
 11 16  2  0
 11 17  1  0
 12 17  2  0
 12 18  1  0
 13 20  1  0
 22 26  1  0
 26 23  1  6
 24 26  1  0
 25 26  2  0
  1 27  1  1
  2 28  1  1
  3 29  1  6
  4 30  1  0
  8 31  1  0
  9 32  1  0
  9 33  1  0
 10 34  1  0
 10 35  1  0
 11 36  1  0
 13 37  1  1
 18 38  1  0
 18 39  1  0
 19 40  1  0
 21 41  1  0
M  CHG  1  23  -1
M  END
>  <filename_input>  (22) 
8G0V_YHT_docked.sdf

>  <pdb_id>  (22) 
8G0V_YHT

>  <pose_rank>  (22) 
21

>  <num_atoms_heavy>  (22) 
26

>  <num_torsions>  (22) 
7

>  <pose>  (22) 
[-13.48128457097288, 18.80818370597855, -28.48114121508092, -2.27490922539009, 2.203558768843176, -2.0730927910681443, -2.249204748798727, 0.13207596893570678, 1.304252496864642, 3.359259679676192, -0.3562744335813248, -2.3704499422822503, 2.2909680833304655]

>  <energy>  (22) 
-555.5824322278611

>  <inter_energy>  (22) 
-583.465120441224

>  <intra_energy>  (22) 
52.08783971599441

>  <rmsd>  (22) 
7.32488

>  <sdf_rank>  (22) 
0

$$$$

     RDKit          3D

 41 43  0  0  0  0  0  0  0  0999 V2000
  -12.4245   21.0349  -32.8170 C   0  0  1  0  0  0  0  0  0  0  0  0
  -11.8075   21.2215  -34.2048 C   0  0  2  0  0  0  0  0  0  0  0  0
  -11.6624   19.7677  -34.6428 C   0  0  2  0  0  0  0  0  0  0  0  0
  -13.3714   19.6703  -36.5158 C   0  0  0  0  0  0  0  0  0  0  0  0
  -14.4789   17.9302  -35.9884 C   0  0  0  0  0  0  0  0  0  0  0  0
  -13.4937   18.0614  -35.0264 C   0  0  0  0  0  0  0  0  0  0  0  0
  -13.8293   19.8962  -28.0630 C   0  0  0  0  0  0  0  0  0  0  0  0
  -13.2761   20.9156  -27.8342 C   0  0  0  0  0  0  0  0  0  0  0  0
  -12.3405   19.0288  -31.2189 C   0  0  0  0  0  0  0  0  0  0  0  0
  -14.5529   18.6483  -28.3141 C   0  0  0  0  0  0  0  0  0  0  0  0
  -14.1731   16.2556  -33.9563 C   0  0  0  0  0  0  0  0  0  0  0  0
  -15.3634   16.8426  -35.8565 C   0  0  0  0  0  0  0  0  0  0  0  0
  -11.6508   19.8183  -32.3051 C   0  0  1  0  0  0  0  0  0  0  0  0
  -12.7853   19.1862  -35.3733 N   0  0  0  0  0  0  0  0  0  0  0  0
  -14.3916   18.9547  -36.9248 N   0  0  0  0  0  0  0  0  0  0  0  0
  -13.2899   17.2483  -33.9728 N   0  0  0  0  0  0  0  0  0  0  0  0
  -15.1730   16.0032  -34.8091 N   0  0  0  0  0  0  0  0  0  0  0  0
  -16.3612   16.5943  -36.7019 N   0  0  0  0  0  0  0  0  0  0  0  0
  -12.2602   22.1890  -32.0006 O   0  0  0  0  0  0  0  0  0  0  0  0
  -11.4526   18.9827  -33.4722 O   0  0  0  0  0  0  0  0  0  0  0  0
  -10.5185   21.7772  -34.0810 O   0  0  0  0  0  0  0  0  0  0  0  0
  -13.6154   18.5401  -31.6866 O   0  0  0  0  0  0  0  0  0  0  0  0
  -13.9680   16.1115  -31.0038 O   0  0  0  0  0  0  0  0  0  0  0  0
  -13.8890   17.8127  -29.2502 O   0  0  0  0  0  0  0  0  0  0  0  0
  -15.8325   17.8752  -30.7785 O   0  0  0  0  0  0  0  0  0  0  0  0
  -14.3966   17.5077  -30.7405 P   0  0  1  0  0  0  0  0  0  0  0  0
  -13.5147   20.8884  -32.8183 H   0  0  0  0  0  0  0  0  0  0  0  0
  -12.3856   21.8702  -34.8792 H   0  0  0  0  0  0  0  0  0  0  0  0
  -10.8237   19.7630  -35.3546 H   0  0  0  0  0  0  0  0  0  0  0  0
  -13.0193   20.5719  -37.0384 H   0  0  0  0  0  0  0  0  0  0  0  0
  -12.7613   21.8641  -27.6213 H   0  0  0  0  0  0  0  0  0  0  0  0
  -11.7078   18.1756  -30.9331 H   0  0  0  0  0  0  0  0  0  0  0  0
  -12.5054   19.6837  -30.3507 H   0  0  0  0  0  0  0  0  0  0  0  0
  -14.6548   18.1026  -27.3645 H   0  0  0  0  0  0  0  0  0  0  0  0
  -15.5336   18.9107  -28.7377 H   0  0  0  0  0  0  0  0  0  0  0  0
  -14.0677   15.5419  -33.1259 H   0  0  0  0  0  0  0  0  0  0  0  0
  -10.7196   20.1616  -31.8308 H   0  0  0  0  0  0  0  0  0  0  0  0
  -16.9744   15.7808  -36.5500 H   0  0  0  0  0  0  0  0  0  0  0  0
  -16.5200   17.2157  -37.5079 H   0  0  0  0  0  0  0  0  0  0  0  0
  -12.2975   21.9266  -31.0468 H   0  0  0  0  0  0  0  0  0  0  0  0
  -10.2920   21.8748  -33.1222 H   0  0  0  0  0  0  0  0  0  0  0  0
  1  2  1  0
  1 13  1  0
  1 19  1  0
  2  3  1  0
  2 21  1  0
  3 14  1  0
  3 20  1  0
  4 14  1  0
  4 15  2  0
  5  6  2  0
  5 12  1  0
  5 15  1  0
  6 14  1  0
  6 16  1  0
  7  8  3  0
  7 10  1  0
 13  9  1  0
  9 22  1  0
 10 24  1  0
 11 16  2  0
 11 17  1  0
 12 17  2  0
 12 18  1  0
 13 20  1  0
 22 26  1  0
 26 23  1  6
 24 26  1  0
 25 26  2  0
  1 27  1  6
  2 28  1  6
  3 29  1  6
  4 30  1  0
  8 31  1  0
  9 32  1  0
  9 33  1  0
 10 34  1  0
 10 35  1  0
 11 36  1  0
 13 37  1  1
 18 38  1  0
 18 39  1  0
 19 40  1  0
 21 41  1  0
M  CHG  1  23  -1
M  END
>  <filename_input>  (23) 
8G0V_YHT_docked.sdf

>  <pdb_id>  (23) 
8G0V_YHT

>  <pose_rank>  (23) 
22

>  <num_atoms_heavy>  (23) 
26

>  <num_torsions>  (23) 
7

>  <pose>  (23) 
[-12.424507223050803, 21.034935150210945, -32.81698359632749, 0.6798187248984291, 1.622300417336073, -3.3844484887138884, 2.9300520803280934, -2.0198887536494228, -0.05353131492502089, -0.6600875434642249, 0.5458206549607835, 0.3598242897060957, 1.474790350107126]

>  <energy>  (23) 
-456.7979702913093

>  <inter_energy>  (23) 
-541.6838357326686

>  <intra_energy>  (23) 
87.76766513368297

>  <rmsd>  (23) 
4.87564

>  <sdf_rank>  (23) 
0

$$$$

     RDKit          3D

 41 43  0  0  0  0  0  0  0  0999 V2000
  -13.9193   14.9867  -30.0997 C   0  0  1  0  0  0  0  0  0  0  0  0
  -14.5694   14.6494  -31.4432 C   0  0  2  0  0  0  0  0  0  0  0  0
  -15.3031   15.9548  -31.7331 C   0  0  2  0  0  0  0  0  0  0  0  0
  -15.0564   17.7364  -33.5230 C   0  0  0  0  0  0  0  0  0  0  0  0
  -13.0035   18.2619  -33.3173 C   0  0  0  0  0  0  0  0  0  0  0  0
  -13.2484   17.2971  -32.3569 C   0  0  0  0  0  0  0  0  0  0  0  0
  -12.3798   21.5352  -31.0618 C   0  0  0  0  0  0  0  0  0  0  0  0
  -11.7005   22.3567  -31.5727 C   0  0  0  0  0  0  0  0  0  0  0  0
  -14.5804   16.7170  -28.3235 C   0  0  0  0  0  0  0  0  0  0  0  0
  -13.2599   20.5306  -30.4616 C   0  0  0  0  0  0  0  0  0  0  0  0
  -11.1646   17.3595  -31.6347 C   0  0  0  0  0  0  0  0  0  0  0  0
  -11.6941   18.7739  -33.3929 C   0  0  0  0  0  0  0  0  0  0  0  0
  -15.0349   15.7806  -29.4168 C   0  0  1  0  0  0  0  0  0  0  0  0
  -14.5735   16.9631  -32.4974 N   0  0  0  0  0  0  0  0  0  0  0  0
  -14.1550   18.5306  -34.0493 N   0  0  0  0  0  0  0  0  0  0  0  0
  -12.3585   16.7975  -31.4786 N   0  0  0  0  0  0  0  0  0  0  0  0
  -10.7816   18.2942  -32.5125 N   0  0  0  0  0  0  0  0  0  0  0  0
  -11.3117   19.7000  -34.2693 N   0  0  0  0  0  0  0  0  0  0  0  0
  -13.5416   13.8176  -29.3814 O   0  0  0  0  0  0  0  0  0  0  0  0
  -15.6637   16.5347  -30.4825 O   0  0  0  0  0  0  0  0  0  0  0  0
  -15.5287   13.6328  -31.2651 O   0  0  0  0  0  0  0  0  0  0  0  0
  -13.5853   17.6322  -28.8285 O   0  0  0  0  0  0  0  0  0  0  0  0
  -12.7571   19.1500  -26.9579 O   0  0  0  0  0  0  0  0  0  0  0  0
  -12.7433   20.0106  -29.2458 O   0  0  0  0  0  0  0  0  0  0  0  0
  -14.9568   19.6137  -28.2164 O   0  0  0  0  0  0  0  0  0  0  0  0
  -13.5628   19.1086  -28.2035 P   0  0  1  0  0  0  0  0  0  0  0  0
  -12.9738   15.5434  -30.1773 H   0  0  0  0  0  0  0  0  0  0  0  0
  -13.8671   14.3114  -32.2194 H   0  0  0  0  0  0  0  0  0  0  0  0
  -16.1542   15.6723  -32.3702 H   0  0  0  0  0  0  0  0  0  0  0  0
  -16.0992   17.6942  -33.8704 H   0  0  0  0  0  0  0  0  0  0  0  0
  -11.0683   23.1212  -32.0481 H   0  0  0  0  0  0  0  0  0  0  0  0
  -15.4442   17.2886  -27.9531 H   0  0  0  0  0  0  0  0  0  0  0  0
  -14.1408   16.1260  -27.5065 H   0  0  0  0  0  0  0  0  0  0  0  0
  -14.2372   20.9935  -30.2600 H   0  0  0  0  0  0  0  0  0  0  0  0
  -13.3462   19.6952  -31.1720 H   0  0  0  0  0  0  0  0  0  0  0  0
  -10.3820   17.0073  -30.9466 H   0  0  0  0  0  0  0  0  0  0  0  0
  -15.7072   15.0793  -28.9009 H   0  0  0  0  0  0  0  0  0  0  0  0
  -10.3374   20.0339  -34.2736 H   0  0  0  0  0  0  0  0  0  0  0  0
  -11.9903   20.0827  -34.9431 H   0  0  0  0  0  0  0  0  0  0  0  0
  -13.5988   13.9947  -28.4091 H   0  0  0  0  0  0  0  0  0  0  0  0
  -15.6723   13.4805  -30.2975 H   0  0  0  0  0  0  0  0  0  0  0  0
  1  2  1  0
  1 13  1  0
  1 19  1  0
  2  3  1  0
  2 21  1  0
  3 14  1  0
  3 20  1  0
  4 14  1  0
  4 15  2  0
  5  6  2  0
  5 12  1  0
  5 15  1  0
  6 14  1  0
  6 16  1  0
  7  8  3  0
  7 10  1  0
 13  9  1  0
  9 22  1  0
 10 24  1  0
 11 16  2  0
 11 17  1  0
 12 17  2  0
 12 18  1  0
 13 20  1  0
 22 26  1  0
 26 23  1  1
 24 26  1  0
 25 26  2  0
  1 27  1  6
  2 28  1  6
  3 29  1  6
  4 30  1  0
  8 31  1  0
  9 32  1  0
  9 33  1  0
 10 34  1  0
 10 35  1  0
 11 36  1  0
 13 37  1  1
 18 38  1  0
 18 39  1  0
 19 40  1  0
 21 41  1  0
M  CHG  1  23  -1
M  END
>  <filename_input>  (24) 
8G0V_YHT_docked.sdf

>  <pdb_id>  (24) 
8G0V_YHT

>  <pose_rank>  (24) 
23

>  <num_atoms_heavy>  (24) 
26

>  <num_torsions>  (24) 
7

>  <pose>  (24) 
[-13.919341886452619, 14.986711365495522, -30.099664168297117, 4.835201681021328, -1.6406545472828102, 1.5635666548042026, -14.482729086544298, -8.36451652101174, -0.4838882422615651, 2.348507560697994, 0.23961885342005348, -1.07134375993106, 1.7213557692246126]

>  <energy>  (24) 
-552.4883177216668

>  <inter_energy>  (24) 
-587.0091438246998

>  <intra_energy>  (24) 
54.13188484175463

>  <rmsd>  (24) 
4.43609

>  <sdf_rank>  (24) 
0

$$$$

     RDKit          3D

 41 43  0  0  0  0  0  0  0  0999 V2000
  -13.2022   19.3767  -31.9535 C   0  0  1  0  0  0  0  0  0  0  0  0
  -11.8338   19.4506  -32.6345 C   0  0  2  0  0  0  0  0  0  0  0  0
  -11.9582   18.3059  -33.6346 C   0  0  2  0  0  0  0  0  0  0  0  0
  -11.8911   19.4472  -35.8999 C   0  0  0  0  0  0  0  0  0  0  0  0
  -13.7530   18.8403  -36.7352 C   0  0  0  0  0  0  0  0  0  0  0  0
  -13.6818   18.2445  -35.4889 C   0  0  0  0  0  0  0  0  0  0  0  0
  -13.3199   12.0891  -30.7423 C   0  0  0  0  0  0  0  0  0  0  0  0
  -13.0616   10.9456  -30.5897 C   0  0  0  0  0  0  0  0  0  0  0  0
  -14.8433   17.4161  -31.7337 C   0  0  0  0  0  0  0  0  0  0  0  0
  -13.6067   13.5171  -30.8925 C   0  0  0  0  0  0  0  0  0  0  0  0
  -15.6505   17.2804  -35.7384 C   0  0  0  0  0  0  0  0  0  0  0  0
  -14.9119   18.5970  -37.4971 C   0  0  0  0  0  0  0  0  0  0  0  0
  -13.4066   17.8637  -31.8529 C   0  0  1  0  0  0  0  0  0  0  0  0
  -12.4792   18.6421  -34.9570 N   0  0  0  0  0  0  0  0  0  0  0  0
  -12.6145   19.5993  -36.9833 N   0  0  0  0  0  0  0  0  0  0  0  0
  -14.6107   17.4475  -34.9280 N   0  0  0  0  0  0  0  0  0  0  0  0
  -15.8581   17.7894  -36.9585 N   0  0  0  0  0  0  0  0  0  0  0  0
  -15.1207   19.1073  -38.7086 N   0  0  0  0  0  0  0  0  0  0  0  0
  -13.2045   20.0290  -30.6886 O   0  0  0  0  0  0  0  0  0  0  0  0
  -12.8211   17.3257  -33.0643 O   0  0  0  0  0  0  0  0  0  0  0  0
  -10.8239   19.1216  -31.7086 O   0  0  0  0  0  0  0  0  0  0  0  0
  -14.9174   15.9756  -31.6847 O   0  0  0  0  0  0  0  0  0  0  0  0
  -16.9492   14.9453  -30.5450 O   0  0  0  0  0  0  0  0  0  0  0  0
  -14.7621   13.9192  -30.1724 O   0  0  0  0  0  0  0  0  0  0  0  0
  -15.1157   16.1715  -29.2139 O   0  0  0  0  0  0  0  0  0  0  0  0
  -15.5254   15.3177  -30.3548 P   0  0  1  0  0  0  0  0  0  0  0  0
  -14.0100   19.8899  -32.4958 H   0  0  0  0  0  0  0  0  0  0  0  0
  -11.5869   20.4345  -33.0599 H   0  0  0  0  0  0  0  0  0  0  0  0
  -10.9279   17.9632  -33.8108 H   0  0  0  0  0  0  0  0  0  0  0  0
  -10.9076   19.9196  -35.7605 H   0  0  0  0  0  0  0  0  0  0  0  0
  -12.8213    9.8816  -30.4478 H   0  0  0  0  0  0  0  0  0  0  0  0
  -15.2780   17.8332  -30.8133 H   0  0  0  0  0  0  0  0  0  0  0  0
  -15.4030   17.7732  -32.6107 H   0  0  0  0  0  0  0  0  0  0  0  0
  -12.7438   14.0907  -30.5234 H   0  0  0  0  0  0  0  0  0  0  0  0
  -13.7945   13.7093  -31.9592 H   0  0  0  0  0  0  0  0  0  0  0  0
  -16.4523   16.6337  -35.3525 H   0  0  0  0  0  0  0  0  0  0  0  0
  -12.9396   17.5017  -30.9251 H   0  0  0  0  0  0  0  0  0  0  0  0
  -15.9909   18.8910  -39.2155 H   0  0  0  0  0  0  0  0  0  0  0  0
  -14.4122   19.7184  -39.1392 H   0  0  0  0  0  0  0  0  0  0  0  0
  -13.2021   19.3506  -29.9676 H   0  0  0  0  0  0  0  0  0  0  0  0
  -11.1705   19.2345  -30.7881 H   0  0  0  0  0  0  0  0  0  0  0  0
  1  2  1  0
  1 13  1  0
  1 19  1  0
  2  3  1  0
  2 21  1  0
  3 14  1  0
  3 20  1  0
  4 14  1  0
  4 15  2  0
  5  6  2  0
  5 12  1  0
  5 15  1  0
  6 14  1  0
  6 16  1  0
  7  8  3  0
  7 10  1  0
 13  9  1  0
  9 22  1  0
 10 24  1  0
 11 16  2  0
 11 17  1  0
 12 17  2  0
 12 18  1  0
 13 20  1  0
 22 26  1  0
 26 23  1  6
 24 26  1  0
 25 26  2  0
  1 27  1  6
  2 28  1  6
  3 29  1  6
  4 30  1  0
  8 31  1  0
  9 32  1  0
  9 33  1  0
 10 34  1  0
 10 35  1  0
 11 36  1  0
 13 37  1  1
 18 38  1  0
 18 39  1  0
 19 40  1  0
 21 41  1  0
M  CHG  1  23  -1
M  END
>  <filename_input>  (25) 
8G0V_YHT_docked.sdf

>  <pdb_id>  (25) 
8G0V_YHT

>  <pose_rank>  (25) 
24

>  <num_atoms_heavy>  (25) 
26

>  <num_torsions>  (25) 
7

>  <pose>  (25) 
[-13.202170839662449, 19.3767029777552, -31.953531388830676, -1.0890893690836403, -1.4497648686261482, 1.3500325102270323, 3.113645981857286, 6.342066700917262, -0.9919497741537698, 2.5867349244858016, 5.359498555710345, -0.6313735151108478, 2.9864408195621235]

>  <energy>  (25) 
-432.23637637617526

>  <inter_energy>  (25) 
-464.3071236278556

>  <intra_energy>  (25) 
37.2366446961427

>  <rmsd>  (25) 
5.36619

>  <sdf_rank>  (25) 
0

$$$$

     RDKit          3D

 41 43  0  0  0  0  0  0  0  0999 V2000
  -11.4870   17.5700  -32.5310 C   0  0  1  0  0  0  0  0  0  0  0  0
  -11.7830   18.3140  -33.8350 C   0  0  2  0  0  0  0  0  0  0  0  0
  -12.8810   19.2650  -33.3700 C   0  0  2  0  0  0  0  0  0  0  0  0
  -12.5460   21.0520  -31.6000 C   0  0  0  0  0  0  0  0  0  0  0  0
  -11.7120   22.6370  -32.7510 C   0  0  0  0  0  0  0  0  0  0  0  0
  -11.9150   21.5910  -33.6330 C   0  0  0  0  0  0  0  0  0  0  0  0
  -13.2140   20.3200  -27.9040 C   0  0  0  0  0  0  0  0  0  0  0  0
  -12.3220   21.0630  -28.1270 C   0  0  0  0  0  0  0  0  0  0  0  0
  -12.9550   17.2050  -30.4580 C   0  0  0  0  0  0  0  0  0  0  0  0
  -14.3290   19.3980  -27.6790 C   0  0  0  0  0  0  0  0  0  0  0  0
  -11.1230   22.7530  -35.3330 C   0  0  0  0  0  0  0  0  0  0  0  0
  -11.1680   23.8240  -33.2780 C   0  0  0  0  0  0  0  0  0  0  0  0
  -12.8940   17.4050  -31.9530 C   0  0  1  0  0  0  0  0  0  0  0  0
  -12.4540   20.5740  -32.8830 N   0  0  0  0  0  0  0  0  0  0  0  0
  -12.1160   22.2840  -31.4680 N   0  0  0  0  0  0  0  0  0  0  0  0
  -11.6400   21.5900  -34.9510 N   0  0  0  0  0  0  0  0  0  0  0  0
  -10.8730   23.8450  -34.6010 N   0  0  0  0  0  0  0  0  0  0  0  0
  -10.9240   24.9120  -32.5510 N   0  0  0  0  0  0  0  0  0  0  0  0
  -10.8260   16.3310  -32.7620 O   0  0  0  0  0  0  0  0  0  0  0  0
  -13.5930   18.6210  -32.3170 O   0  0  0  0  0  0  0  0  0  0  0  0
  -12.3380   17.4230  -34.7750 O   0  0  0  0  0  0  0  0  0  0  0  0
  -14.3270   17.1790  -30.0110 O   0  0  0  0  0  0  0  0  0  0  0  0
  -13.8390   15.6320  -28.0470 O   0  0  0  0  0  0  0  0  0  0  0  0
  -13.9140   18.0410  -27.6390 O   0  0  0  0  0  0  0  0  0  0  0  0
  -16.0490   16.9430  -28.2330 O   0  0  0  0  0  0  0  0  0  0  0  0
  -14.5880   16.8430  -28.4650 P   0  0  1  0  0  0  0  0  0  0  0  0
  -10.7968   18.0939  -31.8534 H   0  0  0  0  0  0  0  0  0  0  0  0
  -10.9059   18.7858  -34.3019 H   0  0  0  0  0  0  0  0  0  0  0  0
  -13.4807   19.4746  -34.2680 H   0  0  0  0  0  0  0  0  0  0  0  0
  -12.9423   20.4589  -30.7627 H   0  0  0  0  0  0  0  0  0  0  0  0
  -11.4920   21.7544  -28.3345 H   0  0  0  0  0  0  0  0  0  0  0  0
  -12.4712   16.2515  -30.1995 H   0  0  0  0  0  0  0  0  0  0  0  0
  -12.4339   18.0385  -29.9643 H   0  0  0  0  0  0  0  0  0  0  0  0
  -14.8062   19.6491  -26.7202 H   0  0  0  0  0  0  0  0  0  0  0  0
  -15.0285   19.5084  -28.5207 H   0  0  0  0  0  0  0  0  0  0  0  0
  -10.8645   22.8287  -36.3995 H   0  0  0  0  0  0  0  0  0  0  0  0
  -13.3415   16.4865  -32.3605 H   0  0  0  0  0  0  0  0  0  0  0  0
  -10.5244   25.7502  -32.9966 H   0  0  0  0  0  0  0  0  0  0  0  0
  -11.1348   24.9157  -31.5428 H   0  0  0  0  0  0  0  0  0  0  0  0
  -10.6014   15.9100  -31.8946 H   0  0  0  0  0  0  0  0  0  0  0  0
  -12.7972   16.6858  -34.2998 H   0  0  0  0  0  0  0  0  0  0  0  0
  1  2  1  0
  1 13  1  0
  1 19  1  0
  2  3  1  0
  2 21  1  0
  3 14  1  0
  3 20  1  0
  4 14  1  0
  4 15  2  0
  5  6  2  0
  5 12  1  0
  5 15  1  0
  6 14  1  0
  6 16  1  0
  7  8  3  0
  7 10  1  0
 13  9  1  0
  9 22  1  0
 10 24  1  0
 11 16  2  0
 11 17  1  0
 12 17  2  0
 12 18  1  0
 13 20  1  0
 22 26  1  0
 26 23  1  1
 24 26  1  0
 25 26  2  0
  1 27  1  1
  2 28  1  6
  3 29  1  6
  4 30  1  0
  8 31  1  0
  9 32  1  0
  9 33  1  0
 10 34  1  0
 10 35  1  0
 11 36  1  0
 13 37  1  6
 18 38  1  0
 18 39  1  0
 19 40  1  0
 21 41  1  0
M  CHG  1  23  -1
M  END
>  <filename_input>  (26) 
8G0V_YHT_docked.sdf

>  <pdb_id>  (26) 
8G0V_YHT

>  <pose_rank>  (26) 
25

>  <num_atoms_heavy>  (26) 
26

>  <num_torsions>  (26) 
7

>  <pose>  (26) 
[-11.487, 17.57, -32.531, 1e-06, 1e-06, 1e-06, 0.0, 0.0, 0.0, 0.0, 0.0, 0.0, 0.0]

>  <energy>  (26) 
-860.86820078264

>  <inter_energy>  (26) 
-867.3156187544199

>  <intra_energy>  (26) 
5.787978415715519

>  <rmsd>  (26) 
0.0

>  <sdf_rank>  (26) 
0

$$$$
