
     RDKit          3D

 27 26  0  0  0  0  0  0  0  0999 V2000
  -31.4240   10.0978   -2.8054 C   0  0  0  0  0  0  0  0  0  0  0  0
  -30.0575   10.0078   -3.4801 C   0  0  2  0  0  0  0  0  0  0  0  0
  -30.0868    9.0533   -4.6842 C   0  0  0  0  0  0  0  0  0  0  0  0
  -29.2813    7.7738   -4.4154 C   0  0  0  0  0  0  0  0  0  0  0  0
  -28.3154    7.5451   -5.5853 C   0  0  0  0  0  0  0  0  0  0  0  0
  -27.9950    6.0620   -5.7875 C   0  0  2  0  0  0  0  0  0  0  0  0
  -29.3001    5.2993   -5.9489 C   0  0  0  0  0  0  0  0  0  0  0  0
  -32.4298    9.5279   -3.3038 O   0  0  0  0  0  0  0  0  0  0  0  0
  -31.5427   10.7354   -1.7304 O   0  0  0  0  0  0  0  0  0  0  0  0
  -29.9262    5.3692   -7.0398 O   0  0  0  0  0  0  0  0  0  0  0  0
  -29.7413    4.6173   -4.9932 O   0  0  0  0  0  0  0  0  0  0  0  0
  -29.0995    9.5467   -2.4889 N   0  0  0  0  0  0  0  0  0  0  0  0
  -27.2544    5.5265   -4.6456 N   0  0  0  0  0  0  0  0  0  0  0  0
  -29.7702   10.9980   -3.8634 H   0  0  0  0  0  0  0  0  0  0  0  0
  -31.1307    8.7792   -4.8963 H   0  0  0  0  0  0  0  0  0  0  0  0
  -29.6323    9.5703   -5.5422 H   0  0  0  0  0  0  0  0  0  0  0  0
  -28.7112    7.8848   -3.4812 H   0  0  0  0  0  0  0  0  0  0  0  0
  -29.9626    6.9157   -4.3189 H   0  0  0  0  0  0  0  0  0  0  0  0
  -28.7737    7.9373   -6.5052 H   0  0  0  0  0  0  0  0  0  0  0  0
  -27.3746    8.0659   -5.3539 H   0  0  0  0  0  0  0  0  0  0  0  0
  -27.3699    5.9496   -6.6856 H   0  0  0  0  0  0  0  0  0  0  0  0
  -29.4699    9.7250   -1.5444 H   0  0  0  0  0  0  0  0  0  0  0  0
  -28.9396    8.5364   -2.6099 H   0  0  0  0  0  0  0  0  0  0  0  0
  -28.2101   10.0520   -2.6099 H   0  0  0  0  0  0  0  0  0  0  0  0
  -27.6949    5.8451   -3.7707 H   0  0  0  0  0  0  0  0  0  0  0  0
  -27.2661    4.4972   -4.6810 H   0  0  0  0  0  0  0  0  0  0  0  0
  -26.2806    5.8602   -4.6810 H   0  0  0  0  0  0  0  0  0  0  0  0
  1  2  1  0
  1  8  2  0
  1  9  1  0
  2  3  1  0
  2 12  1  0
  3  4  1  0
  4  5  1  0
  5  6  1  0
  6  7  1  0
  6 13  1  0
  7 10  2  0
  7 11  1  0
  2 14  1  6
  3 15  1  0
  3 16  1  0
  4 17  1  0
  4 18  1  0
  5 19  1  0
  5 20  1  0
  6 21  1  6
 12 22  1  0
 12 23  1  0
 12 24  1  0
 13 25  1  0
 13 26  1  0
 13 27  1  0
M  CHG  4   9  -1  11  -1  12   1  13   1
M  END
>  <filename_input>  (1) 
8G6P_API_docked.sdf

>  <pdb_id>  (1) 
8G6P_API

>  <pose_rank>  (1) 
0

>  <num_atoms_heavy>  (1) 
13

>  <num_torsions>  (1) 
6

>  <pose>  (1) 
[-29.281276920048214, 7.7738336351930215, -4.4154114425924496, -3.0140673683583183, -4.1105742960624125, 1.1171974185888844, 1.0397260954978824, -0.8718728367705058, 0.7845277351074987, -5.901283835113767, 0.134144361506669, 0.018145043353232217]

>  <energy>  (1) 
-367.1484898213254

>  <inter_energy>  (1) 
-371.8032506961491

>  <intra_energy>  (1) 
3.8491625096641573

>  <rmsd>  (1) 
3.99803

>  <sdf_rank>  (1) 
0

$$$$

     RDKit          3D

 27 26  0  0  0  0  0  0  0  0999 V2000
  -29.1850    4.5352   -7.1689 C   0  0  0  0  0  0  0  0  0  0  0  0
  -28.7876    4.0733   -5.7691 C   0  0  2  0  0  0  0  0  0  0  0  0
  -29.3531    5.0070   -4.6874 C   0  0  0  0  0  0  0  0  0  0  0  0
  -28.2363    5.7113   -3.9033 C   0  0  0  0  0  0  0  0  0  0  0  0
  -28.1332    7.1628   -4.3895 C   0  0  0  0  0  0  0  0  0  0  0  0
  -29.3145    8.0145   -3.9183 C   0  0  2  0  0  0  0  0  0  0  0  0
  -30.0370    8.5628   -5.1383 C   0  0  0  0  0  0  0  0  0  0  0  0
  -29.3142    5.7591   -7.4334 O   0  0  0  0  0  0  0  0  0  0  0  0
  -29.3698    3.6833   -8.0725 O   0  0  0  0  0  0  0  0  0  0  0  0
  -29.3655    8.9762   -6.1207 O   0  0  0  0  0  0  0  0  0  0  0  0
  -31.2906    8.6047   -5.1490 O   0  0  0  0  0  0  0  0  0  0  0  0
  -27.3358    4.0413   -5.7048 N   0  0  0  0  0  0  0  0  0  0  0  0
  -28.8585    9.1238   -3.0812 N   0  0  0  0  0  0  0  0  0  0  0  0
  -29.2047    3.0734   -5.5790 H   0  0  0  0  0  0  0  0  0  0  0  0
  -29.9853    5.7679   -5.1684 H   0  0  0  0  0  0  0  0  0  0  0  0
  -29.9366    4.3986   -3.9807 H   0  0  0  0  0  0  0  0  0  0  0  0
  -28.4725    5.6968   -2.8291 H   0  0  0  0  0  0  0  0  0  0  0  0
  -27.2799    5.1929   -4.0663 H   0  0  0  0  0  0  0  0  0  0  0  0
  -27.2024    7.6015   -4.0008 H   0  0  0  0  0  0  0  0  0  0  0  0
  -28.1413    7.1524   -5.4895 H   0  0  0  0  0  0  0  0  0  0  0  0
  -29.9917    7.3880   -3.3192 H   0  0  0  0  0  0  0  0  0  0  0  0
  -27.0358    4.0347   -4.7195 H   0  0  0  0  0  0  0  0  0  0  0  0
  -26.9899    3.1924   -6.1747 H   0  0  0  0  0  0  0  0  0  0  0  0
  -26.9528    4.8740   -6.1747 H   0  0  0  0  0  0  0  0  0  0  0  0
  -28.9627    8.8701   -2.0884 H   0  0  0  0  0  0  0  0  0  0  0  0
  -27.8679    9.3215   -3.2829 H   0  0  0  0  0  0  0  0  0  0  0  0
  -29.4236    9.9610   -3.2829 H   0  0  0  0  0  0  0  0  0  0  0  0
  1  2  1  0
  1  8  2  0
  1  9  1  0
  2  3  1  0
  2 12  1  0
  3  4  1  0
  4  5  1  0
  5  6  1  0
  6  7  1  0
  6 13  1  0
  7 10  2  0
  7 11  1  0
  2 14  1  1
  3 15  1  0
  3 16  1  0
  4 17  1  0
  4 18  1  0
  5 19  1  0
  5 20  1  0
  6 21  1  1
 12 22  1  0
 12 23  1  0
 12 24  1  0
 13 25  1  0
 13 26  1  0
 13 27  1  0
M  CHG  4   9  -1  11  -1  12   1  13   1
M  END
>  <filename_input>  (2) 
8G6P_API_docked.sdf

>  <pdb_id>  (2) 
8G6P_API

>  <pose_rank>  (2) 
1

>  <num_atoms_heavy>  (2) 
13

>  <num_torsions>  (2) 
6

>  <pose>  (2) 
[-28.236310409198246, 5.711304611272488, -3.903320122583582, -0.31642101159925207, -1.7997714758044796, -4.194664512072459, -7.457487020009247, -0.9696501554423909, 1.4661142253126516, -8.277278371240758, 3.3606260133927424, -2.016503479708371]

>  <energy>  (2) 
-416.25806375149546

>  <inter_energy>  (2) 
-393.89014858995785

>  <intra_energy>  (2) 
2.2019842945267816

>  <rmsd>  (2) 
4.01553

>  <sdf_rank>  (2) 
0

$$$$

     RDKit          3D

 27 26  0  0  0  0  0  0  0  0999 V2000
  -29.8853    9.2381   -3.2885 C   0  0  0  0  0  0  0  0  0  0  0  0
  -29.6572    8.0819   -4.2590 C   0  0  2  0  0  0  0  0  0  0  0  0
  -30.6512    8.1266   -5.4301 C   0  0  0  0  0  0  0  0  0  0  0  0
  -30.4858    6.9181   -6.3630 C   0  0  0  0  0  0  0  0  0  0  0  0
  -28.9903    6.6066   -6.5050 C   0  0  0  0  0  0  0  0  0  0  0  0
  -28.6392    5.2116   -5.9817 C   0  0  2  0  0  0  0  0  0  0  0  0
  -27.2387    5.2510   -5.3917 C   0  0  0  0  0  0  0  0  0  0  0  0
  -29.1976   10.2899   -3.3630 O   0  0  0  0  0  0  0  0  0  0  0  0
  -30.7817    9.1447   -2.4143 O   0  0  0  0  0  0  0  0  0  0  0  0
  -26.9408    6.1545   -4.5659 O   0  0  0  0  0  0  0  0  0  0  0  0
  -26.3955    4.3900   -5.7395 O   0  0  0  0  0  0  0  0  0  0  0  0
  -29.8016    6.8405   -3.5166 N   0  0  0  0  0  0  0  0  0  0  0  0
  -28.6883    4.2218   -7.0573 N   0  0  0  0  0  0  0  0  0  0  0  0
  -28.6488    8.1580   -4.6918 H   0  0  0  0  0  0  0  0  0  0  0  0
  -31.6752    8.1292   -5.0285 H   0  0  0  0  0  0  0  0  0  0  0  0
  -30.4535    9.0385   -6.0126 H   0  0  0  0  0  0  0  0  0  0  0  0
  -31.0063    6.0477   -5.9368 H   0  0  0  0  0  0  0  0  0  0  0  0
  -30.9166    7.1446   -7.3494 H   0  0  0  0  0  0  0  0  0  0  0  0
  -28.7154    6.6658   -7.5684 H   0  0  0  0  0  0  0  0  0  0  0  0
  -28.4333    7.3424   -5.9065 H   0  0  0  0  0  0  0  0  0  0  0  0
  -29.3721    4.9217   -5.2144 H   0  0  0  0  0  0  0  0  0  0  0  0
  -29.7784    7.0400   -2.5063 H   0  0  0  0  0  0  0  0  0  0  0  0
  -30.6997    6.3982   -3.7587 H   0  0  0  0  0  0  0  0  0  0  0  0
  -29.0290    6.2039   -3.7587 H   0  0  0  0  0  0  0  0  0  0  0  0
  -28.7353    3.2762   -6.6518 H   0  0  0  0  0  0  0  0  0  0  0  0
  -29.5221    4.3878   -7.6388 H   0  0  0  0  0  0  0  0  0  0  0  0
  -27.8422    4.3044   -7.6388 H   0  0  0  0  0  0  0  0  0  0  0  0
  1  2  1  0
  1  8  2  0
  1  9  1  0
  2  3  1  0
  2 12  1  0
  3  4  1  0
  4  5  1  0
  5  6  1  0
  6  7  1  0
  6 13  1  0
  7 10  2  0
  7 11  1  0
  2 14  1  6
  3 15  1  0
  3 16  1  0
  4 17  1  0
  4 18  1  0
  5 19  1  0
  5 20  1  0
  6 21  1  1
 12 22  1  0
 12 23  1  0
 12 24  1  0
 13 25  1  0
 13 26  1  0
 13 27  1  0
M  CHG  4   9  -1  11  -1  12   1  13   1
M  END
>  <filename_input>  (3) 
8G6P_API_docked.sdf

>  <pdb_id>  (3) 
8G6P_API

>  <pose_rank>  (3) 
2

>  <num_atoms_heavy>  (3) 
13

>  <num_torsions>  (3) 
6

>  <pose>  (3) 
[-30.485841498772476, 6.918053672436802, -6.362968821687964, 1.8561379151825197, -0.2252744028011698, -0.019104228649999618, 2.6205970084076626, -2.0184825847602967, -0.8043028668292818, -1.190857104364866, 2.8944203363400667, -0.4375710437369145]

>  <energy>  (3) 
-346.1930500205767

>  <inter_energy>  (3) 
-374.1429682787866

>  <intra_energy>  (3) 
28.46244944075212

>  <rmsd>  (3) 
4.20374

>  <sdf_rank>  (3) 
0

$$$$

     RDKit          3D

 27 26  0  0  0  0  0  0  0  0999 V2000
  -29.8100    5.8426   -6.1176 C   0  0  0  0  0  0  0  0  0  0  0  0
  -29.3599    6.9282   -5.1433 C   0  0  2  0  0  0  0  0  0  0  0  0
  -30.0237    8.2777   -5.4594 C   0  0  0  0  0  0  0  0  0  0  0  0
  -31.5470    8.2194   -5.2749 C   0  0  0  0  0  0  0  0  0  0  0  0
  -31.8639    8.2767   -3.7748 C   0  0  0  0  0  0  0  0  0  0  0  0
  -33.1052    9.1220   -3.4792 C   0  0  2  0  0  0  0  0  0  0  0  0
  -32.8602    9.9194   -2.2083 C   0  0  0  0  0  0  0  0  0  0  0  0
  -29.7020    6.0049   -7.3613 O   0  0  0  0  0  0  0  0  0  0  0  0
  -30.2795    4.7668   -5.6718 O   0  0  0  0  0  0  0  0  0  0  0  0
  -33.8328   10.4686   -1.6257 O   0  0  0  0  0  0  0  0  0  0  0  0
  -31.6937   10.0277   -1.7600 O   0  0  0  0  0  0  0  0  0  0  0  0
  -27.9134    7.0391   -5.2353 N   0  0  0  0  0  0  0  0  0  0  0  0
  -34.2852    8.2755   -3.3048 N   0  0  0  0  0  0  0  0  0  0  0  0
  -29.6620    6.6544   -4.1216 H   0  0  0  0  0  0  0  0  0  0  0  0
  -29.6122    9.0437   -4.7857 H   0  0  0  0  0  0  0  0  0  0  0  0
  -29.8152    8.5240   -6.5110 H   0  0  0  0  0  0  0  0  0  0  0  0
  -32.0146    9.0746   -5.7848 H   0  0  0  0  0  0  0  0  0  0  0  0
  -31.9411    7.2871   -5.7056 H   0  0  0  0  0  0  0  0  0  0  0  0
  -32.0366    7.2535   -3.4097 H   0  0  0  0  0  0  0  0  0  0  0  0
  -31.0077    8.7436   -3.2659 H   0  0  0  0  0  0  0  0  0  0  0  0
  -33.2894    9.7974   -4.3277 H   0  0  0  0  0  0  0  0  0  0  0  0
  -27.5105    7.0699   -4.2879 H   0  0  0  0  0  0  0  0  0  0  0  0
  -27.5382    6.2244   -5.7416 H   0  0  0  0  0  0  0  0  0  0  0  0
  -27.6667    7.9014   -5.7416 H   0  0  0  0  0  0  0  0  0  0  0  0
  -34.4681    8.1443   -2.2997 H   0  0  0  0  0  0  0  0  0  0  0  0
  -35.0994    8.7264   -3.7459 H   0  0  0  0  0  0  0  0  0  0  0  0
  -34.1189    7.3597   -3.7459 H   0  0  0  0  0  0  0  0  0  0  0  0
  1  2  1  0
  1  8  2  0
  1  9  1  0
  2  3  1  0
  2 12  1  0
  3  4  1  0
  4  5  1  0
  5  6  1  0
  6  7  1  0
  6 13  1  0
  7 10  2  0
  7 11  1  0
  2 14  1  1
  3 15  1  0
  3 16  1  0
  4 17  1  0
  4 18  1  0
  5 19  1  0
  5 20  1  0
  6 21  1  6
 12 22  1  0
 12 23  1  0
 12 24  1  0
 13 25  1  0
 13 26  1  0
 13 27  1  0
M  CHG  4   9  -1  11  -1  12   1  13   1
M  END
>  <filename_input>  (4) 
8G6P_API_docked.sdf

>  <pdb_id>  (4) 
8G6P_API

>  <pose_rank>  (4) 
3

>  <num_atoms_heavy>  (4) 
13

>  <num_torsions>  (4) 
6

>  <pose>  (4) 
[-31.547017019799895, 8.219378567989775, -5.274850165721296, 1.052729178311265, 4.454783119987962, 0.3517530314784625, -7.923292404249194, 2.1782616911239012, 1.8328135521461801, -0.7839348370715592, 2.9976513183653446, 2.0880570515503343]

>  <energy>  (4) 
-326.2824304140133

>  <inter_energy>  (4) 
-316.9465074297742

>  <intra_energy>  (4) 
0.052327908489614224

>  <rmsd>  (4) 
4.03162

>  <sdf_rank>  (4) 
0

$$$$

     RDKit          3D

 27 26  0  0  0  0  0  0  0  0999 V2000
  -27.6276    4.3643   -5.5277 C   0  0  0  0  0  0  0  0  0  0  0  0
  -28.6359    4.2719   -6.6703 C   0  0  2  0  0  0  0  0  0  0  0  0
  -28.9585    5.6586   -7.2489 C   0  0  0  0  0  0  0  0  0  0  0  0
  -30.4525    5.9922   -7.1268 C   0  0  0  0  0  0  0  0  0  0  0  0
  -30.5954    7.4307   -6.6127 C   0  0  0  0  0  0  0  0  0  0  0  0
  -31.3745    7.4984   -5.2968 C   0  0  2  0  0  0  0  0  0  0  0  0
  -32.6418    8.3073   -5.5221 C   0  0  0  0  0  0  0  0  0  0  0  0
  -27.9887    4.7146   -4.3737 O   0  0  0  0  0  0  0  0  0  0  0  0
  -26.4250    4.0715   -5.7382 O   0  0  0  0  0  0  0  0  0  0  0  0
  -33.4362    8.4921   -4.5621 O   0  0  0  0  0  0  0  0  0  0  0  0
  -32.8851    8.7732   -6.6610 O   0  0  0  0  0  0  0  0  0  0  0  0
  -29.8404    3.6437   -6.1533 N   0  0  0  0  0  0  0  0  0  0  0  0
  -30.5739    8.1274   -4.2468 N   0  0  0  0  0  0  0  0  0  0  0  0
  -28.2099    3.6743   -7.4897 H   0  0  0  0  0  0  0  0  0  0  0  0
  -28.3783    6.4166   -6.7022 H   0  0  0  0  0  0  0  0  0  0  0  0
  -28.6947    5.6541   -8.3168 H   0  0  0  0  0  0  0  0  0  0  0  0
  -30.9336    5.9018   -8.1118 H   0  0  0  0  0  0  0  0  0  0  0  0
  -30.9361    5.2946   -6.4271 H   0  0  0  0  0  0  0  0  0  0  0  0
  -29.5917    7.8512   -6.4524 H   0  0  0  0  0  0  0  0  0  0  0  0
  -31.1539    8.0052   -7.3663 H   0  0  0  0  0  0  0  0  0  0  0  0
  -31.6224    6.4765   -4.9740 H   0  0  0  0  0  0  0  0  0  0  0  0
  -29.8187    3.6551   -5.1236 H   0  0  0  0  0  0  0  0  0  0  0  0
  -30.6670    4.1612   -6.4850 H   0  0  0  0  0  0  0  0  0  0  0  0
  -29.8892    2.6698   -6.4850 H   0  0  0  0  0  0  0  0  0  0  0  0
  -30.9342    7.8443   -3.3243 H   0  0  0  0  0  0  0  0  0  0  0  0
  -29.5923    7.8291   -4.3383 H   0  0  0  0  0  0  0  0  0  0  0  0
  -30.6314    9.1517   -4.3383 H   0  0  0  0  0  0  0  0  0  0  0  0
  1  2  1  0
  1  8  2  0
  1  9  1  0
  2  3  1  0
  2 12  1  0
  3  4  1  0
  4  5  1  0
  5  6  1  0
  6  7  1  0
  6 13  1  0
  7 10  2  0
  7 11  1  0
  2 14  1  6
  3 15  1  0
  3 16  1  0
  4 17  1  0
  4 18  1  0
  5 19  1  0
  5 20  1  0
  6 21  1  1
 12 22  1  0
 12 23  1  0
 12 24  1  0
 13 25  1  0
 13 26  1  0
 13 27  1  0
M  CHG  4   9  -1  11  -1  12   1  13   1
M  END
>  <filename_input>  (5) 
8G6P_API_docked.sdf

>  <pdb_id>  (5) 
8G6P_API

>  <pose_rank>  (5) 
4

>  <num_atoms_heavy>  (5) 
13

>  <num_torsions>  (5) 
6

>  <pose>  (5) 
[-30.452486200302197, 5.992228336922981, -7.126755770459927, 2.5838965320871723, 2.8310064730561266, -1.5435780716307501, -0.630138349081256, -1.0367544408381273, -4.019522137298962, 0.9187469676635606, 3.4084953472857977, -4.446290666477302]

>  <energy>  (5) 
-283.40445840075677

>  <inter_energy>  (5) 
-277.4097308984228

>  <intra_energy>  (5) 
0.0

>  <rmsd>  (5) 
3.05938

>  <sdf_rank>  (5) 
0

$$$$

     RDKit          3D

 27 26  0  0  0  0  0  0  0  0999 V2000
  -29.5352    7.0294   -8.6074 C   0  0  0  0  0  0  0  0  0  0  0  0
  -29.4761    5.5874   -8.1098 C   0  0  2  0  0  0  0  0  0  0  0  0
  -29.0436    5.5183   -6.6367 C   0  0  0  0  0  0  0  0  0  0  0  0
  -28.5281    6.8735   -6.1311 C   0  0  0  0  0  0  0  0  0  0  0  0
  -28.8269    6.9853   -4.6304 C   0  0  0  0  0  0  0  0  0  0  0  0
  -29.6031    8.2599   -4.2900 C   0  0  2  0  0  0  0  0  0  0  0  0
  -29.1604    8.7486   -2.9203 C   0  0  0  0  0  0  0  0  0  0  0  0
  -29.7018    7.2856   -9.8286 O   0  0  0  0  0  0  0  0  0  0  0  0
  -29.4324    7.9727   -7.7851 O   0  0  0  0  0  0  0  0  0  0  0  0
  -29.0480    7.9228   -1.9756 O   0  0  0  0  0  0  0  0  0  0  0  0
  -28.9207    9.9673   -2.7450 O   0  0  0  0  0  0  0  0  0  0  0  0
  -28.5366    4.8632   -8.9500 N   0  0  0  0  0  0  0  0  0  0  0  0
  -31.0436    8.0071   -4.2762 N   0  0  0  0  0  0  0  0  0  0  0  0
  -30.4770    5.1354   -8.1712 H   0  0  0  0  0  0  0  0  0  0  0  0
  -29.9067    5.2149   -6.0259 H   0  0  0  0  0  0  0  0  0  0  0  0
  -28.2253    4.7879   -6.5539 H   0  0  0  0  0  0  0  0  0  0  0  0
  -27.4431    6.9425   -6.2985 H   0  0  0  0  0  0  0  0  0  0  0  0
  -29.0265    7.6901   -6.6741 H   0  0  0  0  0  0  0  0  0  0  0  0
  -29.4233    6.1140   -4.3219 H   0  0  0  0  0  0  0  0  0  0  0  0
  -27.8661    7.0215   -4.0961 H   0  0  0  0  0  0  0  0  0  0  0  0
  -29.3954    9.0215   -5.0560 H   0  0  0  0  0  0  0  0  0  0  0  0
  -27.8702    4.3495   -8.3561 H   0  0  0  0  0  0  0  0  0  0  0  0
  -29.0505    4.1975   -9.5447 H   0  0  0  0  0  0  0  0  0  0  0  0
  -28.0236    5.5296   -9.5447 H   0  0  0  0  0  0  0  0  0  0  0  0
  -31.3728    7.9493   -3.3019 H   0  0  0  0  0  0  0  0  0  0  0  0
  -31.5316    8.7753   -4.7585 H   0  0  0  0  0  0  0  0  0  0  0  0
  -31.2409    7.1186   -4.7585 H   0  0  0  0  0  0  0  0  0  0  0  0
  1  2  1  0
  1  8  2  0
  1  9  1  0
  2  3  1  0
  2 12  1  0
  3  4  1  0
  4  5  1  0
  5  6  1  0
  6  7  1  0
  6 13  1  0
  7 10  2  0
  7 11  1  0
  2 14  1  1
  3 15  1  0
  3 16  1  0
  4 17  1  0
  4 18  1  0
  5 19  1  0
  5 20  1  0
  6 21  1  6
 12 22  1  0
 12 23  1  0
 12 24  1  0
 13 25  1  0
 13 26  1  0
 13 27  1  0
M  CHG  4   9  -1  11  -1  12   1  13   1
M  END
>  <filename_input>  (6) 
8G6P_API_docked.sdf

>  <pdb_id>  (6) 
8G6P_API

>  <pose_rank>  (6) 
5

>  <num_atoms_heavy>  (6) 
13

>  <num_torsions>  (6) 
6

>  <pose>  (6) 
[-28.52810129623938, 6.8735114407842275, -6.13108998685963, 2.2935980596984833, 0.9855750789629131, 2.7754304490187236, -6.651874581243815, -5.413560456051135, 3.8686527835886126, 7.113316408788636, 2.912589683037518, -2.095704062699628]

>  <energy>  (6) 
-234.1339296352429

>  <inter_energy>  (6) 
-289.7379558288201

>  <intra_energy>  (6) 
62.27066222833075

>  <rmsd>  (6) 
3.72255

>  <sdf_rank>  (6) 
0

$$$$

     RDKit          3D

 27 26  0  0  0  0  0  0  0  0999 V2000
  -33.7264   13.0722  -10.0711 C   0  0  0  0  0  0  0  0  0  0  0  0
  -33.0875   11.7598  -10.5182 C   0  0  2  0  0  0  0  0  0  0  0  0
  -33.9467   10.5507  -10.1165 C   0  0  0  0  0  0  0  0  0  0  0  0
  -33.2754    9.7164   -9.0158 C   0  0  0  0  0  0  0  0  0  0  0  0
  -31.9998    9.0834   -9.5866 C   0  0  0  0  0  0  0  0  0  0  0  0
  -31.6011    7.8108   -8.8352 C   0  0  2  0  0  0  0  0  0  0  0  0
  -30.3936    8.1175   -7.9641 C   0  0  0  0  0  0  0  0  0  0  0  0
  -33.3457   14.1726  -10.5496 O   0  0  0  0  0  0  0  0  0  0  0  0
  -34.6552   13.0522   -9.2265 O   0  0  0  0  0  0  0  0  0  0  0  0
  -29.4676    8.8384   -8.4224 O   0  0  0  0  0  0  0  0  0  0  0  0
  -30.3297    7.6434   -6.8046 O   0  0  0  0  0  0  0  0  0  0  0  0
  -31.7710   11.6734   -9.9080 N   0  0  0  0  0  0  0  0  0  0  0  0
  -31.2694    6.7346   -9.7684 N   0  0  0  0  0  0  0  0  0  0  0  0
  -33.0064   11.7447  -11.6151 H   0  0  0  0  0  0  0  0  0  0  0  0
  -34.9185   10.9108   -9.7479 H   0  0  0  0  0  0  0  0  0  0  0  0
  -34.0731    9.9108  -11.0023 H   0  0  0  0  0  0  0  0  0  0  0  0
  -33.0182   10.3646   -8.1652 H   0  0  0  0  0  0  0  0  0  0  0  0
  -33.9622    8.9294   -8.6710 H   0  0  0  0  0  0  0  0  0  0  0  0
  -32.1712    8.8319  -10.6436 H   0  0  0  0  0  0  0  0  0  0  0  0
  -31.1825    9.8113   -9.4764 H   0  0  0  0  0  0  0  0  0  0  0  0
  -32.4481    7.4798   -8.2162 H   0  0  0  0  0  0  0  0  0  0  0  0
  -31.8668   11.6796   -8.8825 H   0  0  0  0  0  0  0  0  0  0  0  0
  -31.3118   10.8004  -10.2046 H   0  0  0  0  0  0  0  0  0  0  0  0
  -31.2015   12.4788  -10.2046 H   0  0  0  0  0  0  0  0  0  0  0  0
  -31.0090    5.8898   -9.2397 H   0  0  0  0  0  0  0  0  0  0  0  0
  -32.0865    6.5303  -10.3613 H   0  0  0  0  0  0  0  0  0  0  0  0
  -30.4791    7.0257  -10.3613 H   0  0  0  0  0  0  0  0  0  0  0  0
  1  2  1  0
  1  8  2  0
  1  9  1  0
  2  3  1  0
  2 12  1  0
  3  4  1  0
  4  5  1  0
  5  6  1  0
  6  7  1  0
  6 13  1  0
  7 10  2  0
  7 11  1  0
  2 14  1  6
  3 15  1  0
  3 16  1  0
  4 17  1  0
  4 18  1  0
  5 19  1  0
  5 20  1  0
  6 21  1  1
 12 22  1  0
 12 23  1  0
 12 24  1  0
 13 25  1  0
 13 26  1  0
 13 27  1  0
M  CHG  4   9  -1  11  -1  12   1  13   1
M  END
>  <filename_input>  (7) 
8G6P_API_docked.sdf

>  <pdb_id>  (7) 
8G6P_API

>  <pose_rank>  (7) 
6

>  <num_atoms_heavy>  (7) 
13

>  <num_torsions>  (7) 
6

>  <pose>  (7) 
[-33.27540129445894, 9.716433017595769, -9.015836588407664, -3.262819240352771, -15.57649254471575, 9.029035170576682, 2.1456218416071775, -26.003131762042436, -8.261672103552916, 0.3221132730935563, -8.957623189692498, -2.027556836866622]

>  <energy>  (7) 
-80.302557689716

>  <inter_energy>  (7) 
-115.04012605889116

>  <intra_energy>  (7) 
35.00115724438185

>  <rmsd>  (7) 
5.40693

>  <sdf_rank>  (7) 
0

$$$$

     RDKit          3D

 27 26  0  0  0  0  0  0  0  0999 V2000
  -30.0118    5.6637   -9.5307 C   0  0  0  0  0  0  0  0  0  0  0  0
  -30.3119    5.9651   -8.0645 C   0  0  2  0  0  0  0  0  0  0  0  0
  -30.0238    4.7490   -7.1702 C   0  0  0  0  0  0  0  0  0  0  0  0
  -29.1157    5.1154   -5.9873 C   0  0  0  0  0  0  0  0  0  0  0  0
  -29.7959    6.2198   -5.1678 C   0  0  0  0  0  0  0  0  0  0  0  0
  -28.8190    6.9194   -4.2196 C   0  0  2  0  0  0  0  0  0  0  0  0
  -29.3687    8.2962   -3.8828 C   0  0  0  0  0  0  0  0  0  0  0  0
  -29.9589    6.5886  -10.3831 O   0  0  0  0  0  0  0  0  0  0  0  0
  -29.7989    4.4790   -9.8880 O   0  0  0  0  0  0  0  0  0  0  0  0
  -29.7889    9.0380   -4.8102 O   0  0  0  0  0  0  0  0  0  0  0  0
  -29.3898    8.6798   -2.6888 O   0  0  0  0  0  0  0  0  0  0  0  0
  -31.7102    6.3497   -7.9648 N   0  0  0  0  0  0  0  0  0  0  0  0
  -27.4999    7.0577   -4.8362 N   0  0  0  0  0  0  0  0  0  0  0  0
  -29.6613    6.7805   -7.7156 H   0  0  0  0  0  0  0  0  0  0  0  0
  -30.9760    4.3593   -6.7811 H   0  0  0  0  0  0  0  0  0  0  0  0
  -29.5063    3.9920   -7.7777 H   0  0  0  0  0  0  0  0  0  0  0  0
  -28.9569    4.2297   -5.3545 H   0  0  0  0  0  0  0  0  0  0  0  0
  -28.1424    5.4694   -6.3578 H   0  0  0  0  0  0  0  0  0  0  0  0
  -30.2155    6.9661   -5.8584 H   0  0  0  0  0  0  0  0  0  0  0  0
  -30.5830    5.7524   -4.5580 H   0  0  0  0  0  0  0  0  0  0  0  0
  -28.7100    6.3148   -3.3072 H   0  0  0  0  0  0  0  0  0  0  0  0
  -31.9762    6.4229   -6.9725 H   0  0  0  0  0  0  0  0  0  0  0  0
  -31.8495    7.2602   -8.4257 H   0  0  0  0  0  0  0  0  0  0  0  0
  -32.2956    5.6385   -8.4257 H   0  0  0  0  0  0  0  0  0  0  0  0
  -26.7832    7.1328   -4.1003 H   0  0  0  0  0  0  0  0  0  0  0  0
  -27.3062    6.2324   -5.4212 H   0  0  0  0  0  0  0  0  0  0  0  0
  -27.4815    7.9052   -5.4212 H   0  0  0  0  0  0  0  0  0  0  0  0
  1  2  1  0
  1  8  2  0
  1  9  1  0
  2  3  1  0
  2 12  1  0
  3  4  1  0
  4  5  1  0
  5  6  1  0
  6  7  1  0
  6 13  1  0
  7 10  2  0
  7 11  1  0
  2 14  1  1
  3 15  1  0
  3 16  1  0
  4 17  1  0
  4 18  1  0
  5 19  1  0
  5 20  1  0
  6 21  1  1
 12 22  1  0
 12 23  1  0
 12 24  1  0
 13 25  1  0
 13 26  1  0
 13 27  1  0
M  CHG  4   9  -1  11  -1  12   1  13   1
M  END
>  <filename_input>  (8) 
8G6P_API_docked.sdf

>  <pdb_id>  (8) 
8G6P_API

>  <pose_rank>  (8) 
7

>  <num_atoms_heavy>  (8) 
13

>  <num_torsions>  (8) 
6

>  <pose>  (8) 
[-29.115727420486273, 5.115359246699229, -5.987253241596863, 0.7392627553678539, 0.029185424394081207, 2.3348775391789767, -1.9644216778705754, 3.2987331529699255, -2.0364680994182947, 0.17109417403056024, 1.9236893592646909, 4.146293033216185]

>  <energy>  (8) 
-388.70769227042206

>  <inter_energy>  (8) 
-372.74814952675644

>  <intra_energy>  (8) 
2.8488783371166395

>  <rmsd>  (8) 
3.30189

>  <sdf_rank>  (8) 
0

$$$$

     RDKit          3D

 27 26  0  0  0  0  0  0  0  0999 V2000
  -28.5726    5.6043   -9.3199 C   0  0  0  0  0  0  0  0  0  0  0  0
  -29.1855    5.1002   -8.0157 C   0  0  2  0  0  0  0  0  0  0  0  0
  -29.9206    6.2242   -7.2687 C   0  0  0  0  0  0  0  0  0  0  0  0
  -28.9776    7.3830   -6.9141 C   0  0  0  0  0  0  0  0  0  0  0  0
  -29.5591    8.1416   -5.7140 C   0  0  0  0  0  0  0  0  0  0  0  0
  -28.7214    7.9476   -4.4477 C   0  0  2  0  0  0  0  0  0  0  0  0
  -28.7558    6.4777   -4.0614 C   0  0  0  0  0  0  0  0  0  0  0  0
  -29.2749    6.2058  -10.1741 O   0  0  0  0  0  0  0  0  0  0  0  0
  -27.3481    5.4306   -9.5361 O   0  0  0  0  0  0  0  0  0  0  0  0
  -29.8337    5.9712   -3.6508 O   0  0  0  0  0  0  0  0  0  0  0  0
  -27.7105    5.7897   -4.1481 O   0  0  0  0  0  0  0  0  0  0  0  0
  -28.1120    4.5625   -7.1963 N   0  0  0  0  0  0  0  0  0  0  0  0
  -29.2446    8.7545   -3.3457 N   0  0  0  0  0  0  0  0  0  0  0  0
  -29.9305    4.3215   -8.2359 H   0  0  0  0  0  0  0  0  0  0  0  0
  -30.7303    6.6065   -7.9077 H   0  0  0  0  0  0  0  0  0  0  0  0
  -30.3201    5.8086   -6.3318 H   0  0  0  0  0  0  0  0  0  0  0  0
  -27.9848    6.9862   -6.6552 H   0  0  0  0  0  0  0  0  0  0  0  0
  -28.8784    8.0618   -7.7739 H   0  0  0  0  0  0  0  0  0  0  0  0
  -29.5933    9.2142   -5.9555 H   0  0  0  0  0  0  0  0  0  0  0  0
  -30.5657    7.7437   -5.5179 H   0  0  0  0  0  0  0  0  0  0  0  0
  -27.6887    8.2687   -4.6484 H   0  0  0  0  0  0  0  0  0  0  0  0
  -28.3479    4.6807   -6.2007 H   0  0  0  0  0  0  0  0  0  0  0  0
  -27.9904    3.5610   -7.4038 H   0  0  0  0  0  0  0  0  0  0  0  0
  -27.2371    5.0648   -7.4038 H   0  0  0  0  0  0  0  0  0  0  0  0
  -28.9694    8.3299   -2.4485 H   0  0  0  0  0  0  0  0  0  0  0  0
  -28.8608    9.7083   -3.4063 H   0  0  0  0  0  0  0  0  0  0  0  0
  -30.2721    8.7933   -3.4063 H   0  0  0  0  0  0  0  0  0  0  0  0
  1  2  1  0
  1  8  2  0
  1  9  1  0
  2  3  1  0
  2 12  1  0
  3  4  1  0
  4  5  1  0
  5  6  1  0
  6  7  1  0
  6 13  1  0
  7 10  2  0
  7 11  1  0
  2 14  1  6
  3 15  1  0
  3 16  1  0
  4 17  1  0
  4 18  1  0
  5 19  1  0
  5 20  1  0
  6 21  1  6
 12 22  1  0
 12 23  1  0
 12 24  1  0
 13 25  1  0
 13 26  1  0
 13 27  1  0
M  CHG  4   9  -1  11  -1  12   1  13   1
M  END
>  <filename_input>  (9) 
8G6P_API_docked.sdf

>  <pdb_id>  (9) 
8G6P_API

>  <pose_rank>  (9) 
8

>  <num_atoms_heavy>  (9) 
13

>  <num_torsions>  (9) 
6

>  <pose>  (9) 
[-28.9775723159114, 7.383019117279939, -6.91406470497714, 1.6722633663389084, 0.8426961646545644, 2.4872325102534254, 0.5749279922100632, 0.015492255447690095, -0.047825020317103915, 11.246796382697154, 10.635471226418936, 3.783835586724684]

>  <energy>  (9) 
-331.99289355818075

>  <inter_energy>  (9) 
-331.2249946826092

>  <intra_energy>  (9) 
6.636189084601229

>  <rmsd>  (9) 
3.57605

>  <sdf_rank>  (9) 
0

$$$$

     RDKit          3D

 27 26  0  0  0  0  0  0  0  0999 V2000
  -30.8790    7.7041   -8.7446 C   0  0  0  0  0  0  0  0  0  0  0  0
  -30.7180    8.9110   -7.8237 C   0  0  2  0  0  0  0  0  0  0  0  0
  -29.4104    8.8345   -7.0200 C   0  0  0  0  0  0  0  0  0  0  0  0
  -29.4918    7.7876   -5.8996 C   0  0  0  0  0  0  0  0  0  0  0  0
  -28.1084    7.1487   -5.7210 C   0  0  0  0  0  0  0  0  0  0  0  0
  -28.1239    6.0177   -4.6897 C   0  0  2  0  0  0  0  0  0  0  0  0
  -28.8751    4.8335   -5.2766 C   0  0  0  0  0  0  0  0  0  0  0  0
  -30.1065    7.5301   -9.7232 O   0  0  0  0  0  0  0  0  0  0  0  0
  -31.7842    6.8654   -8.5132 O   0  0  0  0  0  0  0  0  0  0  0  0
  -29.9907    4.5069   -4.7912 O   0  0  0  0  0  0  0  0  0  0  0  0
  -28.3724    4.1918   -6.2300 O   0  0  0  0  0  0  0  0  0  0  0  0
  -31.8633    8.9461   -6.9292 N   0  0  0  0  0  0  0  0  0  0  0  0
  -28.7771    6.4462   -3.4532 N   0  0  0  0  0  0  0  0  0  0  0  0
  -30.6702    9.8301   -8.4262 H   0  0  0  0  0  0  0  0  0  0  0  0
  -28.5892    8.5650   -7.7005 H   0  0  0  0  0  0  0  0  0  0  0  0
  -29.2339    9.8172   -6.5584 H   0  0  0  0  0  0  0  0  0  0  0  0
  -29.7992    8.2728   -4.9614 H   0  0  0  0  0  0  0  0  0  0  0  0
  -30.2300    7.0153   -6.1615 H   0  0  0  0  0  0  0  0  0  0  0  0
  -27.7783    6.7419   -6.6883 H   0  0  0  0  0  0  0  0  0  0  0  0
  -27.4206    7.9271   -5.3591 H   0  0  0  0  0  0  0  0  0  0  0  0
  -27.0877    5.7361   -4.4509 H   0  0  0  0  0  0  0  0  0  0  0  0
  -31.5365    8.9361   -5.9525 H   0  0  0  0  0  0  0  0  0  0  0  0
  -32.4066    9.8042   -7.1007 H   0  0  0  0  0  0  0  0  0  0  0  0
  -32.4582    8.1230   -7.1007 H   0  0  0  0  0  0  0  0  0  0  0  0
  -28.2440    6.0965   -2.6443 H   0  0  0  0  0  0  0  0  0  0  0  0
  -28.8124    7.4752   -3.4223 H   0  0  0  0  0  0  0  0  0  0  0  0
  -29.7350    6.0688   -3.4223 H   0  0  0  0  0  0  0  0  0  0  0  0
  1  2  1  0
  1  8  2  0
  1  9  1  0
  2  3  1  0
  2 12  1  0
  3  4  1  0
  4  5  1  0
  5  6  1  0
  6  7  1  0
  6 13  1  0
  7 10  2  0
  7 11  1  0
  2 14  1  6
  3 15  1  0
  3 16  1  0
  4 17  1  0
  4 18  1  0
  5 19  1  0
  5 20  1  0
  6 21  1  1
 12 22  1  0
 12 23  1  0
 12 24  1  0
 13 25  1  0
 13 26  1  0
 13 27  1  0
M  CHG  4   9  -1  11  -1  12   1  13   1
M  END
>  <filename_input>  (10) 
8G6P_API_docked.sdf

>  <pdb_id>  (10) 
8G6P_API

>  <pose_rank>  (10) 
9

>  <num_atoms_heavy>  (10) 
13

>  <num_torsions>  (10) 
6

>  <pose>  (10) 
[-29.491786022036134, 7.787567719284803, -5.899562634428637, -4.750361313386069, 1.7977577118902799, 2.902957752764983, -19.283923335700266, -6.512368160820703, -0.28455676450369405, -6.320858111885496, 6.698123787875944, -3.2535180715816727]

>  <energy>  (10) 
-381.5056407172497

>  <inter_energy>  (10) 
-368.2943507887296

>  <intra_energy>  (10) 
0.3088438308955001

>  <rmsd>  (10) 
1.69061

>  <sdf_rank>  (10) 
0

$$$$

     RDKit          3D

 27 26  0  0  0  0  0  0  0  0999 V2000
  -29.4960    5.3121   -9.6770 C   0  0  0  0  0  0  0  0  0  0  0  0
  -29.9739    4.9151   -8.2825 C   0  0  2  0  0  0  0  0  0  0  0  0
  -30.7871    6.0413   -7.6252 C   0  0  0  0  0  0  0  0  0  0  0  0
  -29.8851    7.0273   -6.8687 C   0  0  0  0  0  0  0  0  0  0  0  0
  -29.8992    6.6635   -5.3783 C   0  0  0  0  0  0  0  0  0  0  0  0
  -28.5524    6.9375   -4.7046 C   0  0  2  0  0  0  0  0  0  0  0  0
  -28.1700    5.7261   -3.8695 C   0  0  0  0  0  0  0  0  0  0  0  0
  -30.2348    5.9784  -10.4483 O   0  0  0  0  0  0  0  0  0  0  0  0
  -28.3443    4.9831  -10.0535 O   0  0  0  0  0  0  0  0  0  0  0  0
  -27.0021    5.2613   -3.9530 O   0  0  0  0  0  0  0  0  0  0  0  0
  -29.0225    5.1998   -3.1149 O   0  0  0  0  0  0  0  0  0  0  0  0
  -28.8025    4.5998   -7.4818 N   0  0  0  0  0  0  0  0  0  0  0  0
  -28.6279    8.1188   -3.8455 N   0  0  0  0  0  0  0  0  0  0  0  0
  -30.6382    4.0414   -8.3558 H   0  0  0  0  0  0  0  0  0  0  0  0
  -31.3355    6.5878   -8.4068 H   0  0  0  0  0  0  0  0  0  0  0  0
  -31.4798    5.5864   -6.9019 H   0  0  0  0  0  0  0  0  0  0  0  0
  -28.8577    6.9609   -7.2560 H   0  0  0  0  0  0  0  0  0  0  0  0
  -30.2540    8.0543   -7.0071 H   0  0  0  0  0  0  0  0  0  0  0  0
  -30.6749    7.2596   -4.8752 H   0  0  0  0  0  0  0  0  0  0  0  0
  -30.1061    5.5864   -5.2950 H   0  0  0  0  0  0  0  0  0  0  0  0
  -27.7952    7.1248   -5.4803 H   0  0  0  0  0  0  0  0  0  0  0  0
  -29.0423    4.6644   -6.4822 H   0  0  0  0  0  0  0  0  0  0  0  0
  -28.4860    3.6438   -7.6979 H   0  0  0  0  0  0  0  0  0  0  0  0
  -28.0489    5.2679   -7.6979 H   0  0  0  0  0  0  0  0  0  0  0  0
  -28.6092    7.8268   -2.8580 H   0  0  0  0  0  0  0  0  0  0  0  0
  -27.8245    8.7344   -4.0368 H   0  0  0  0  0  0  0  0  0  0  0  0
  -29.5031    8.6271   -4.0368 H   0  0  0  0  0  0  0  0  0  0  0  0
  1  2  1  0
  1  8  2  0
  1  9  1  0
  2  3  1  0
  2 12  1  0
  3  4  1  0
  4  5  1  0
  5  6  1  0
  6  7  1  0
  6 13  1  0
  7 10  2  0
  7 11  1  0
  2 14  1  6
  3 15  1  0
  3 16  1  0
  4 17  1  0
  4 18  1  0
  5 19  1  0
  5 20  1  0
  6 21  1  6
 12 22  1  0
 12 23  1  0
 12 24  1  0
 13 25  1  0
 13 26  1  0
 13 27  1  0
M  CHG  4   9  -1  11  -1  12   1  13   1
M  END
>  <filename_input>  (11) 
8G6P_API_docked.sdf

>  <pdb_id>  (11) 
8G6P_API

>  <pose_rank>  (11) 
10

>  <num_atoms_heavy>  (11) 
13

>  <num_torsions>  (11) 
6

>  <pose>  (11) 
[-29.885119637701354, 7.027260785341574, -6.868660998801692, 2.525439964617053, 0.1461307725797759, 2.8602639327334076, -4.700343967966899, -0.4683688307114697, 0.2136078805926091, -0.7032059101776452, 9.420669201328042, 1.0149651863469682]

>  <energy>  (11) 
-378.3828494079693

>  <inter_energy>  (11) 
-390.14942369762616

>  <intra_energy>  (11) 
9.37665797532406

>  <rmsd>  (11) 
3.36276

>  <sdf_rank>  (11) 
0

$$$$

     RDKit          3D

 27 26  0  0  0  0  0  0  0  0999 V2000
  -32.9154    8.4451   -3.6508 C   0  0  0  0  0  0  0  0  0  0  0  0
  -31.6745    8.2182   -4.5106 C   0  0  2  0  0  0  0  0  0  0  0  0
  -30.4175    8.8052   -3.8495 C   0  0  0  0  0  0  0  0  0  0  0  0
  -29.2449    7.8140   -3.8768 C   0  0  0  0  0  0  0  0  0  0  0  0
  -28.4092    8.0745   -5.1368 C   0  0  0  0  0  0  0  0  0  0  0  0
  -27.7396    6.8008   -5.6585 C   0  0  2  0  0  0  0  0  0  0  0  0
  -28.8213    5.8060   -6.0475 C   0  0  0  0  0  0  0  0  0  0  0  0
  -33.9759    7.8011   -3.8637 O   0  0  0  0  0  0  0  0  0  0  0  0
  -32.8725    9.2737   -2.7085 O   0  0  0  0  0  0  0  0  0  0  0  0
  -28.8695    4.6876   -5.4696 O   0  0  0  0  0  0  0  0  0  0  0  0
  -29.6463    6.1066   -6.9432 O   0  0  0  0  0  0  0  0  0  0  0  0
  -31.9069    8.8409   -5.8034 N   0  0  0  0  0  0  0  0  0  0  0  0
  -26.8754    6.2084   -4.6379 N   0  0  0  0  0  0  0  0  0  0  0  0
  -31.5001    7.1385   -4.6278 H   0  0  0  0  0  0  0  0  0  0  0  0
  -30.1248    9.7184   -4.3884 H   0  0  0  0  0  0  0  0  0  0  0  0
  -30.6547    9.0262   -2.7983 H   0  0  0  0  0  0  0  0  0  0  0  0
  -28.6200    7.9553   -2.9826 H   0  0  0  0  0  0  0  0  0  0  0  0
  -29.6266    6.7824   -3.8872 H   0  0  0  0  0  0  0  0  0  0  0  0
  -29.0670    8.4761   -5.9217 H   0  0  0  0  0  0  0  0  0  0  0  0
  -27.6163    8.7904   -4.8747 H   0  0  0  0  0  0  0  0  0  0  0  0
  -27.1180    7.0538   -6.5301 H   0  0  0  0  0  0  0  0  0  0  0  0
  -32.2639    9.7970   -5.6647 H   0  0  0  0  0  0  0  0  0  0  0  0
  -31.0229    8.8775   -6.3307 H   0  0  0  0  0  0  0  0  0  0  0  0
  -32.5987    8.2892   -6.3307 H   0  0  0  0  0  0  0  0  0  0  0  0
  -27.2315    6.4525   -3.7028 H   0  0  0  0  0  0  0  0  0  0  0  0
  -26.8686    5.1841   -4.7462 H   0  0  0  0  0  0  0  0  0  0  0  0
  -25.9176    6.5715   -4.7462 H   0  0  0  0  0  0  0  0  0  0  0  0
  1  2  1  0
  1  8  2  0
  1  9  1  0
  2  3  1  0
  2 12  1  0
  3  4  1  0
  4  5  1  0
  5  6  1  0
  6  7  1  0
  6 13  1  0
  7 10  2  0
  7 11  1  0
  2 14  1  6
  3 15  1  0
  3 16  1  0
  4 17  1  0
  4 18  1  0
  5 19  1  0
  5 20  1  0
  6 21  1  6
 12 22  1  0
 12 23  1  0
 12 24  1  0
 13 25  1  0
 13 26  1  0
 13 27  1  0
M  CHG  4   9  -1  11  -1  12   1  13   1
M  END
>  <filename_input>  (12) 
8G6P_API_docked.sdf

>  <pdb_id>  (12) 
8G6P_API

>  <pose_rank>  (12) 
11

>  <num_atoms_heavy>  (12) 
13

>  <num_torsions>  (12) 
6

>  <pose>  (12) 
[-29.24489645035399, 7.81402541645699, -3.8768128111616305, -2.5907877077053056, -4.329524914505872, -0.3898417391767751, 17.479879319988843, -2.8989834620332795, -1.9831014267753582, -24.711870304613143, 6.545857607183382, -3.3953442044828237]

>  <energy>  (12) 
-378.0267739277579

>  <inter_energy>  (12) 
-364.42499598264465

>  <intra_energy>  (12) 
0.3886489041339077

>  <rmsd>  (12) 
3.10408

>  <sdf_rank>  (12) 
0

$$$$

     RDKit          3D

 27 26  0  0  0  0  0  0  0  0999 V2000
  -34.4483    9.0469   -7.3099 C   0  0  0  0  0  0  0  0  0  0  0  0
  -33.5982    9.9348   -8.2153 C   0  0  2  0  0  0  0  0  0  0  0  0
  -34.0628    9.8548   -9.6779 C   0  0  0  0  0  0  0  0  0  0  0  0
  -33.8069   11.1696  -10.4287 C   0  0  0  0  0  0  0  0  0  0  0  0
  -32.6727   10.9479  -11.4378 C   0  0  0  0  0  0  0  0  0  0  0  0
  -33.0633   11.3880  -12.8509 C   0  0  2  0  0  0  0  0  0  0  0  0
  -34.3566   10.6894  -13.2387 C   0  0  0  0  0  0  0  0  0  0  0  0
  -34.1881    7.8225   -7.1764 O   0  0  0  0  0  0  0  0  0  0  0  0
  -35.4102    9.5484   -6.6776 O   0  0  0  0  0  0  0  0  0  0  0  0
  -35.3695   11.3800  -13.5286 O   0  0  0  0  0  0  0  0  0  0  0  0
  -34.4021    9.4361  -13.2574 O   0  0  0  0  0  0  0  0  0  0  0  0
  -32.2160    9.5007   -8.0962 N   0  0  0  0  0  0  0  0  0  0  0  0
  -32.0162   11.0466  -13.8133 N   0  0  0  0  0  0  0  0  0  0  0  0
  -33.7014   10.9846   -7.9035 H   0  0  0  0  0  0  0  0  0  0  0  0
  -33.5155    9.0444  -10.1818 H   0  0  0  0  0  0  0  0  0  0  0  0
  -35.1458    9.6624   -9.6833 H   0  0  0  0  0  0  0  0  0  0  0  0
  -34.7201   11.4762  -10.9599 H   0  0  0  0  0  0  0  0  0  0  0  0
  -33.5254   11.9591   -9.7163 H   0  0  0  0  0  0  0  0  0  0  0  0
  -31.7942   11.5266  -11.1165 H   0  0  0  0  0  0  0  0  0  0  0  0
  -32.4526    9.8706  -11.4679 H   0  0  0  0  0  0  0  0  0  0  0  0
  -33.1973   12.4798  -12.8620 H   0  0  0  0  0  0  0  0  0  0  0  0
  -31.9655    9.4220   -7.1003 H   0  0  0  0  0  0  0  0  0  0  0  0
  -32.1037    8.5839   -8.5521 H   0  0  0  0  0  0  0  0  0  0  0  0
  -31.5997   10.1886   -8.5521 H   0  0  0  0  0  0  0  0  0  0  0  0
  -31.1629   10.7684  -13.3079 H   0  0  0  0  0  0  0  0  0  0  0  0
  -32.3349   10.2660  -14.4048 H   0  0  0  0  0  0  0  0  0  0  0  0
  -31.8135   11.8651  -14.4048 H   0  0  0  0  0  0  0  0  0  0  0  0
  1  2  1  0
  1  8  2  0
  1  9  1  0
  2  3  1  0
  2 12  1  0
  3  4  1  0
  4  5  1  0
  5  6  1  0
  6  7  1  0
  6 13  1  0
  7 10  2  0
  7 11  1  0
  2 14  1  1
  3 15  1  0
  3 16  1  0
  4 17  1  0
  4 18  1  0
  5 19  1  0
  5 20  1  0
  6 21  1  1
 12 22  1  0
 12 23  1  0
 12 24  1  0
 13 25  1  0
 13 26  1  0
 13 27  1  0
M  CHG  4   9  -1  11  -1  12   1  13   1
M  END
>  <filename_input>  (13) 
8G6P_API_docked.sdf

>  <pdb_id>  (13) 
8G6P_API

>  <pose_rank>  (13) 
12

>  <num_atoms_heavy>  (13) 
13

>  <num_torsions>  (13) 
6

>  <pose>  (13) 
[-33.80689607978779, 11.169640813100774, -10.428743905023154, -7.759107233150138, 2.909161006560242, 2.5979074994144584, 5.207459419448712, 3.670503097227464, -3.919477475057156, 11.539553931304605, 4.517654545935082, 0.7948837292201992]

>  <energy>  (13) 
-93.22865725912983

>  <inter_energy>  (13) 
-86.3371945553703

>  <intra_energy>  (13) 
2.5677803763530442

>  <rmsd>  (13) 
6.51964

>  <sdf_rank>  (13) 
0

$$$$

     RDKit          3D

 27 26  0  0  0  0  0  0  0  0999 V2000
  -28.6615    4.8655   -6.0404 C   0  0  0  0  0  0  0  0  0  0  0  0
  -28.2121    5.5683   -4.7619 C   0  0  2  0  0  0  0  0  0  0  0  0
  -27.9068    7.0532   -5.0141 C   0  0  0  0  0  0  0  0  0  0  0  0
  -29.0110    7.9634   -4.4570 C   0  0  0  0  0  0  0  0  0  0  0  0
  -29.1961    9.1522   -5.4090 C   0  0  0  0  0  0  0  0  0  0  0  0
  -30.3961    8.9641   -6.3405 C   0  0  2  0  0  0  0  0  0  0  0  0
  -31.4457    8.1326   -5.6209 C   0  0  0  0  0  0  0  0  0  0  0  0
  -28.8956    5.5202   -7.0899 O   0  0  0  0  0  0  0  0  0  0  0  0
  -28.7838    3.6160   -6.0497 O   0  0  0  0  0  0  0  0  0  0  0  0
  -31.7503    6.9964   -6.0717 O   0  0  0  0  0  0  0  0  0  0  0  0
  -32.0010    8.5901   -4.5934 O   0  0  0  0  0  0  0  0  0  0  0  0
  -27.0294    4.8828   -4.2676 N   0  0  0  0  0  0  0  0  0  0  0  0
  -29.9990    8.2875   -7.5749 N   0  0  0  0  0  0  0  0  0  0  0  0
  -29.0205    5.5296   -4.0169 H   0  0  0  0  0  0  0  0  0  0  0  0
  -26.9545    7.3090   -4.5266 H   0  0  0  0  0  0  0  0  0  0  0  0
  -27.8486    7.2111   -6.1011 H   0  0  0  0  0  0  0  0  0  0  0  0
  -29.9525    7.3996   -4.3817 H   0  0  0  0  0  0  0  0  0  0  0  0
  -28.7295    8.3248   -3.4569 H   0  0  0  0  0  0  0  0  0  0  0  0
  -29.3499   10.0635   -4.8124 H   0  0  0  0  0  0  0  0  0  0  0  0
  -28.2931    9.2302   -6.0323 H   0  0  0  0  0  0  0  0  0  0  0  0
  -30.8024    9.9514   -6.6054 H   0  0  0  0  0  0  0  0  0  0  0  0
  -27.0357    4.8865   -3.2376 H   0  0  0  0  0  0  0  0  0  0  0  0
  -27.0289    3.9105   -4.6074 H   0  0  0  0  0  0  0  0  0  0  0  0
  -26.1855    5.3657   -4.6074 H   0  0  0  0  0  0  0  0  0  0  0  0
  -29.4911    7.4218   -7.3438 H   0  0  0  0  0  0  0  0  0  0  0  0
  -30.8386    8.0565   -8.1251 H   0  0  0  0  0  0  0  0  0  0  0  0
  -29.3879    8.9078   -8.1251 H   0  0  0  0  0  0  0  0  0  0  0  0
  1  2  1  0
  1  8  2  0
  1  9  1  0
  2  3  1  0
  2 12  1  0
  3  4  1  0
  4  5  1  0
  5  6  1  0
  6  7  1  0
  6 13  1  0
  7 10  2  0
  7 11  1  0
  2 14  1  1
  3 15  1  0
  3 16  1  0
  4 17  1  0
  4 18  1  0
  5 19  1  0
  5 20  1  0
  6 21  1  6
 12 22  1  0
 12 23  1  0
 12 24  1  0
 13 25  1  0
 13 26  1  0
 13 27  1  0
M  CHG  4   9  -1  11  -1  12   1  13   1
M  END
>  <filename_input>  (14) 
8G6P_API_docked.sdf

>  <pdb_id>  (14) 
8G6P_API

>  <pose_rank>  (14) 
13

>  <num_atoms_heavy>  (14) 
13

>  <num_torsions>  (14) 
6

>  <pose>  (14) 
[-29.0109915074864, 7.963439589061456, -4.457025343887033, -1.4958128880226247, -0.30265133427835295, 1.9018611073885006, 7.07701432335353, -3.3832559523100803, 0.7421632686910115, 4.772620081540793, 5.994863302255345, 2.9528613402248443]

>  <energy>  (14) 
-321.5454605914252

>  <inter_energy>  (14) 
-333.98421399752704

>  <intra_energy>  (14) 
19.035482956638074

>  <rmsd>  (14) 
2.60873

>  <sdf_rank>  (14) 
0

$$$$

     RDKit          3D

 27 26  0  0  0  0  0  0  0  0999 V2000
  -31.0359    5.9490   -8.1564 C   0  0  0  0  0  0  0  0  0  0  0  0
  -30.0352    7.0106   -8.6057 C   0  0  2  0  0  0  0  0  0  0  0  0
  -29.9738    8.1816   -7.6124 C   0  0  0  0  0  0  0  0  0  0  0  0
  -29.9030    7.6914   -6.1589 C   0  0  0  0  0  0  0  0  0  0  0  0
  -28.4869    7.1692   -5.8836 C   0  0  0  0  0  0  0  0  0  0  0  0
  -28.1401    7.2000   -4.3931 C   0  0  2  0  0  0  0  0  0  0  0  0
  -28.1945    5.7809   -3.8508 C   0  0  0  0  0  0  0  0  0  0  0  0
  -32.2738    6.1767   -8.1792 O   0  0  0  0  0  0  0  0  0  0  0  0
  -30.6193    4.8280   -7.7740 O   0  0  0  0  0  0  0  0  0  0  0  0
  -27.1297    5.2199   -3.4785 O   0  0  0  0  0  0  0  0  0  0  0  0
  -29.2956    5.1834   -3.7883 O   0  0  0  0  0  0  0  0  0  0  0  0
  -30.4416    7.4796   -9.9202 N   0  0  0  0  0  0  0  0  0  0  0  0
  -29.0810    8.0415   -3.6544 N   0  0  0  0  0  0  0  0  0  0  0  0
  -29.0271    6.5724   -8.6468 H   0  0  0  0  0  0  0  0  0  0  0  0
  -29.0803    8.7858   -7.8286 H   0  0  0  0  0  0  0  0  0  0  0  0
  -30.8909    8.7778   -7.7286 H   0  0  0  0  0  0  0  0  0  0  0  0
  -30.1297    8.5236   -5.4762 H   0  0  0  0  0  0  0  0  0  0  0  0
  -30.6364    6.8873   -5.9987 H   0  0  0  0  0  0  0  0  0  0  0  0
  -28.4155    6.1319   -6.2428 H   0  0  0  0  0  0  0  0  0  0  0  0
  -27.7768    7.8242   -6.4097 H   0  0  0  0  0  0  0  0  0  0  0  0
  -27.1316    7.6213   -4.2684 H   0  0  0  0  0  0  0  0  0  0  0  0
  -31.1127    8.2540   -9.8160 H   0  0  0  0  0  0  0  0  0  0  0  0
  -29.6145    7.8094  -10.4379 H   0  0  0  0  0  0  0  0  0  0  0  0
  -30.8856    6.7078  -10.4379 H   0  0  0  0  0  0  0  0  0  0  0  0
  -28.9363    7.9121   -2.6429 H   0  0  0  0  0  0  0  0  0  0  0  0
  -28.9241    9.0294   -3.9001 H   0  0  0  0  0  0  0  0  0  0  0  0
  -30.0453    7.7756   -3.9001 H   0  0  0  0  0  0  0  0  0  0  0  0
  1  2  1  0
  1  8  2  0
  1  9  1  0
  2  3  1  0
  2 12  1  0
  3  4  1  0
  4  5  1  0
  5  6  1  0
  6  7  1  0
  6 13  1  0
  7 10  2  0
  7 11  1  0
  2 14  1  6
  3 15  1  0
  3 16  1  0
  4 17  1  0
  4 18  1  0
  5 19  1  0
  5 20  1  0
  6 21  1  6
 12 22  1  0
 12 23  1  0
 12 24  1  0
 13 25  1  0
 13 26  1  0
 13 27  1  0
M  CHG  4   9  -1  11  -1  12   1  13   1
M  END
>  <filename_input>  (15) 
8G6P_API_docked.sdf

>  <pdb_id>  (15) 
8G6P_API

>  <pose_rank>  (15) 
14

>  <num_atoms_heavy>  (15) 
13

>  <num_torsions>  (15) 
6

>  <pose>  (15) 
[-29.903009481102753, 7.6913659297301695, -6.158861747955046, 2.3360519442586964, 1.8808100116858297, 5.275580415752117, -7.955351410931189, 8.137750441222138, 2.106705927214244, -0.5199151319019266, 1.0107977303076603, 0.652852575154524]

>  <energy>  (15) 
-372.5757442928651

>  <inter_energy>  (15) 
-363.4653899297308

>  <intra_energy>  (15) 
3.3984102260360345

>  <rmsd>  (15) 
2.068

>  <sdf_rank>  (15) 
0

$$$$

     RDKit          3D

 27 26  0  0  0  0  0  0  0  0999 V2000
  -29.0766    6.7043   -5.7792 C   0  0  0  0  0  0  0  0  0  0  0  0
  -29.6319    8.1036   -5.5263 C   0  0  2  0  0  0  0  0  0  0  0  0
  -30.6904    8.0955   -4.4122 C   0  0  0  0  0  0  0  0  0  0  0  0
  -32.1078    7.9180   -4.9756 C   0  0  0  0  0  0  0  0  0  0  0  0
  -33.0038    9.0296   -4.4140 C   0  0  0  0  0  0  0  0  0  0  0  0
  -33.0031    9.0533   -2.8835 C   0  0  2  0  0  0  0  0  0  0  0  0
  -34.4429    9.0682   -2.3959 C   0  0  0  0  0  0  0  0  0  0  0  0
  -29.1799    6.1626   -6.9109 O   0  0  0  0  0  0  0  0  0  0  0  0
  -28.4949    6.0919   -4.8502 O   0  0  0  0  0  0  0  0  0  0  0  0
  -34.7206    8.5693   -1.2729 O   0  0  0  0  0  0  0  0  0  0  0  0
  -35.3369    9.5686   -3.1195 O   0  0  0  0  0  0  0  0  0  0  0  0
  -30.2068    8.5876   -6.7705 N   0  0  0  0  0  0  0  0  0  0  0  0
  -32.3044   10.2350   -2.3790 N   0  0  0  0  0  0  0  0  0  0  0  0
  -28.8204    8.7669   -5.1921 H   0  0  0  0  0  0  0  0  0  0  0  0
  -30.4749    7.2666   -3.7220 H   0  0  0  0  0  0  0  0  0  0  0  0
  -30.6474    9.0637   -3.8918 H   0  0  0  0  0  0  0  0  0  0  0  0
  -32.0806    7.9839   -6.0733 H   0  0  0  0  0  0  0  0  0  0  0  0
  -32.5055    6.9342   -4.6860 H   0  0  0  0  0  0  0  0  0  0  0  0
  -32.6394    9.9994   -4.7837 H   0  0  0  0  0  0  0  0  0  0  0  0
  -34.0335    8.8355   -4.7487 H   0  0  0  0  0  0  0  0  0  0  0  0
  -32.4800    8.1600   -2.5114 H   0  0  0  0  0  0  0  0  0  0  0  0
  -30.9786    9.2372   -6.5623 H   0  0  0  0  0  0  0  0  0  0  0  0
  -29.4831    9.0777   -7.3154 H   0  0  0  0  0  0  0  0  0  0  0  0
  -30.5663    7.7909   -7.3154 H   0  0  0  0  0  0  0  0  0  0  0  0
  -32.3108   10.2240   -1.3491 H   0  0  0  0  0  0  0  0  0  0  0  0
  -31.3312   10.2285   -2.7163 H   0  0  0  0  0  0  0  0  0  0  0  0
  -32.7790   11.0846   -2.7163 H   0  0  0  0  0  0  0  0  0  0  0  0
  1  2  1  0
  1  8  2  0
  1  9  1  0
  2  3  1  0
  2 12  1  0
  3  4  1  0
  4  5  1  0
  5  6  1  0
  6  7  1  0
  6 13  1  0
  7 10  2  0
  7 11  1  0
  2 14  1  1
  3 15  1  0
  3 16  1  0
  4 17  1  0
  4 18  1  0
  5 19  1  0
  5 20  1  0
  6 21  1  1
 12 22  1  0
 12 23  1  0
 12 24  1  0
 13 25  1  0
 13 26  1  0
 13 27  1  0
M  CHG  4   9  -1  11  -1  12   1  13   1
M  END
>  <filename_input>  (16) 
8G6P_API_docked.sdf

>  <pdb_id>  (16) 
8G6P_API

>  <pose_rank>  (16) 
15

>  <num_atoms_heavy>  (16) 
13

>  <num_torsions>  (16) 
6

>  <pose>  (16) 
[-32.107816913427385, 7.9180321237723925, -4.975621764018474, 1.728692002579366, 3.259724852693726, -0.8197541487419062, 1.0604997483493304, 12.017280280725457, -3.2934467046176925, 20.90261607712712, 3.2020770733961794, 1.3435530963542206]

>  <energy>  (16) 
-277.29466816531743

>  <inter_energy>  (16) 
-275.5084153793264

>  <intra_energy>  (16) 
3.3960950950925883

>  <rmsd>  (16) 
4.09923

>  <sdf_rank>  (16) 
0

$$$$

     RDKit          3D

 27 26  0  0  0  0  0  0  0  0999 V2000
  -29.1105    7.9095   -4.1497 C   0  0  0  0  0  0  0  0  0  0  0  0
  -28.4128    6.6380   -4.6262 C   0  0  2  0  0  0  0  0  0  0  0  0
  -28.2356    6.6322   -6.1527 C   0  0  0  0  0  0  0  0  0  0  0  0
  -28.9663    5.4499   -6.8057 C   0  0  0  0  0  0  0  0  0  0  0  0
  -30.4591    5.7891   -6.9075 C   0  0  0  0  0  0  0  0  0  0  0  0
  -30.7911    6.5524   -8.1921 C   0  0  2  0  0  0  0  0  0  0  0  0
  -31.4482    7.8714   -7.8189 C   0  0  0  0  0  0  0  0  0  0  0  0
  -30.2320    7.8569   -3.5803 O   0  0  0  0  0  0  0  0  0  0  0  0
  -28.5506    9.0213   -4.3137 O   0  0  0  0  0  0  0  0  0  0  0  0
  -30.9101    8.9531   -8.1758 O   0  0  0  0  0  0  0  0  0  0  0  0
  -32.5120    7.8674   -7.1543 O   0  0  0  0  0  0  0  0  0  0  0  0
  -29.2159    5.5026   -4.2032 N   0  0  0  0  0  0  0  0  0  0  0  0
  -31.6965    5.7786   -9.0411 N   0  0  0  0  0  0  0  0  0  0  0  0
  -27.4058    6.5838   -4.1868 H   0  0  0  0  0  0  0  0  0  0  0  0
  -28.6390    7.5703   -6.5617 H   0  0  0  0  0  0  0  0  0  0  0  0
  -27.1622    6.5352   -6.3726 H   0  0  0  0  0  0  0  0  0  0  0  0
  -28.5577    5.2723   -7.8114 H   0  0  0  0  0  0  0  0  0  0  0  0
  -28.8288    4.5431   -6.1984 H   0  0  0  0  0  0  0  0  0  0  0  0
  -31.0370    4.8533   -6.8918 H   0  0  0  0  0  0  0  0  0  0  0  0
  -30.7184    6.4335   -6.0546 H   0  0  0  0  0  0  0  0  0  0  0  0
  -29.8620    6.7305   -8.7535 H   0  0  0  0  0  0  0  0  0  0  0  0
  -29.2424    5.4651   -3.1742 H   0  0  0  0  0  0  0  0  0  0  0  0
  -30.1738    5.6047   -4.5679 H   0  0  0  0  0  0  0  0  0  0  0  0
  -28.8006    4.6334   -4.5679 H   0  0  0  0  0  0  0  0  0  0  0  0
  -32.3375    5.2308   -8.4496 H   0  0  0  0  0  0  0  0  0  0  0  0
  -32.2411    6.4195   -9.6358 H   0  0  0  0  0  0  0  0  0  0  0  0
  -31.1484    5.1408   -9.6358 H   0  0  0  0  0  0  0  0  0  0  0  0
  1  2  1  0
  1  8  2  0
  1  9  1  0
  2  3  1  0
  2 12  1  0
  3  4  1  0
  4  5  1  0
  5  6  1  0
  6  7  1  0
  6 13  1  0
  7 10  2  0
  7 11  1  0
  2 14  1  1
  3 15  1  0
  3 16  1  0
  4 17  1  0
  4 18  1  0
  5 19  1  0
  5 20  1  0
  6 21  1  6
 12 22  1  0
 12 23  1  0
 12 24  1  0
 13 25  1  0
 13 26  1  0
 13 27  1  0
M  CHG  4   9  -1  11  -1  12   1  13   1
M  END
>  <filename_input>  (17) 
8G6P_API_docked.sdf

>  <pdb_id>  (17) 
8G6P_API

>  <pose_rank>  (17) 
16

>  <num_atoms_heavy>  (17) 
13

>  <num_torsions>  (17) 
6

>  <pose>  (17) 
[-28.966276117554365, 5.449949344339709, -6.805686624196012, -0.6599965771705526, -2.8004770490772435, 1.1471993136528422, -1.602860091569367, -1.0190496631420254, -3.352092604128902, -8.015710270554456, -2.966047866302043, 0.7920699356643295]

>  <energy>  (17) 
-302.00576958207364

>  <inter_energy>  (17) 
-326.8020231800001

>  <intra_energy>  (17) 
15.261189693856311

>  <rmsd>  (17) 
2.66632

>  <sdf_rank>  (17) 
0

$$$$

     RDKit          3D

 27 26  0  0  0  0  0  0  0  0999 V2000
  -30.1055    6.0607   -3.4160 C   0  0  0  0  0  0  0  0  0  0  0  0
  -29.5440    7.2107   -4.2484 C   0  0  2  0  0  0  0  0  0  0  0  0
  -28.8224    6.6960   -5.5039 C   0  0  0  0  0  0  0  0  0  0  0  0
  -29.7850    5.9724   -6.4567 C   0  0  0  0  0  0  0  0  0  0  0  0
  -29.2654    6.1262   -7.8921 C   0  0  0  0  0  0  0  0  0  0  0  0
  -30.2372    6.9111   -8.7766 C   0  0  2  0  0  0  0  0  0  0  0  0
  -30.7645    5.9858   -9.8614 C   0  0  0  0  0  0  0  0  0  0  0  0
  -31.3410    5.9663   -3.1944 O   0  0  0  0  0  0  0  0  0  0  0  0
  -29.3258    5.1886   -2.9599 O   0  0  0  0  0  0  0  0  0  0  0  0
  -31.8736    6.2372  -10.4032 O   0  0  0  0  0  0  0  0  0  0  0  0
  -30.0942    4.9804  -10.1977 O   0  0  0  0  0  0  0  0  0  0  0  0
  -28.6279    7.9644   -3.4084 N   0  0  0  0  0  0  0  0  0  0  0  0
  -29.5725    8.0584   -9.3939 N   0  0  0  0  0  0  0  0  0  0  0  0
  -30.3683    7.8523   -4.5933 H   0  0  0  0  0  0  0  0  0  0  0  0
  -28.3732    7.5500   -6.0319 H   0  0  0  0  0  0  0  0  0  0  0  0
  -28.0515    5.9787   -5.1860 H   0  0  0  0  0  0  0  0  0  0  0  0
  -29.8342    4.9056   -6.1933 H   0  0  0  0  0  0  0  0  0  0  0  0
  -30.7917    6.4081   -6.3742 H   0  0  0  0  0  0  0  0  0  0  0  0
  -28.3024    6.6572   -7.8654 H   0  0  0  0  0  0  0  0  0  0  0  0
  -29.1551    5.1195   -8.3214 H   0  0  0  0  0  0  0  0  0  0  0  0
  -31.0639    7.2864   -8.1555 H   0  0  0  0  0  0  0  0  0  0  0  0
  -28.8449    7.7858   -2.4175 H   0  0  0  0  0  0  0  0  0  0  0  0
  -27.6605    7.6712   -3.6062 H   0  0  0  0  0  0  0  0  0  0  0  0
  -28.7291    8.9701   -3.6062 H   0  0  0  0  0  0  0  0  0  0  0  0
  -29.2111    8.6824   -8.6584 H   0  0  0  0  0  0  0  0  0  0  0  0
  -28.7916    7.7288   -9.9790 H   0  0  0  0  0  0  0  0  0  0  0  0
  -30.2469    8.5720   -9.9790 H   0  0  0  0  0  0  0  0  0  0  0  0
  1  2  1  0
  1  8  2  0
  1  9  1  0
  2  3  1  0
  2 12  1  0
  3  4  1  0
  4  5  1  0
  5  6  1  0
  6  7  1  0
  6 13  1  0
  7 10  2  0
  7 11  1  0
  2 14  1  6
  3 15  1  0
  3 16  1  0
  4 17  1  0
  4 18  1  0
  5 19  1  0
  5 20  1  0
  6 21  1  1
 12 22  1  0
 12 23  1  0
 12 24  1  0
 13 25  1  0
 13 26  1  0
 13 27  1  0
M  CHG  4   9  -1  11  -1  12   1  13   1
M  END
>  <filename_input>  (18) 
8G6P_API_docked.sdf

>  <pdb_id>  (18) 
8G6P_API

>  <pose_rank>  (18) 
17

>  <num_atoms_heavy>  (18) 
13

>  <num_torsions>  (18) 
6

>  <pose>  (18) 
[-29.78504099731548, 5.972447184392872, -6.456731017465501, 2.0319570735722645, 0.6213678849410799, -1.1006624650028534, -6.6282571465624525, 8.455910381301411, -1.1964331942834159, 19.84406291342739, -9.10994143909569, 1.411661238891615]

>  <energy>  (18) 
-323.30719650977

>  <inter_energy>  (18) 
-317.0769238734242

>  <intra_energy>  (18) 
0.0

>  <rmsd>  (18) 
2.5696

>  <sdf_rank>  (18) 
0

$$$$

     RDKit          3D

 27 26  0  0  0  0  0  0  0  0999 V2000
  -27.7978    4.7088   -5.6352 C   0  0  0  0  0  0  0  0  0  0  0  0
  -28.0491    5.7287   -4.5274 C   0  0  2  0  0  0  0  0  0  0  0  0
  -29.4453    6.3591   -4.6498 C   0  0  0  0  0  0  0  0  0  0  0  0
  -29.3702    7.8234   -5.1061 C   0  0  0  0  0  0  0  0  0  0  0  0
  -29.4960    7.8700   -6.6345 C   0  0  0  0  0  0  0  0  0  0  0  0
  -30.6034    8.8218   -7.0935 C   0  0  2  0  0  0  0  0  0  0  0  0
  -31.8185    7.9994   -7.4914 C   0  0  0  0  0  0  0  0  0  0  0  0
  -28.7124    4.3888   -6.4390 O   0  0  0  0  0  0  0  0  0  0  0  0
  -26.6589    4.1942   -5.7561 O   0  0  0  0  0  0  0  0  0  0  0  0
  -32.7972    8.5694   -8.0430 O   0  0  0  0  0  0  0  0  0  0  0  0
  -31.8357    6.7670   -7.2588 O   0  0  0  0  0  0  0  0  0  0  0  0
  -27.0198    6.7509   -4.6195 N   0  0  0  0  0  0  0  0  0  0  0  0
  -30.1631    9.6255   -8.2334 N   0  0  0  0  0  0  0  0  0  0  0  0
  -28.0089    5.2271   -3.5492 H   0  0  0  0  0  0  0  0  0  0  0  0
  -30.0316    5.7868   -5.3838 H   0  0  0  0  0  0  0  0  0  0  0  0
  -29.9209    6.3332   -3.6583 H   0  0  0  0  0  0  0  0  0  0  0  0
  -30.1911    8.3958   -4.6496 H   0  0  0  0  0  0  0  0  0  0  0  0
  -28.4112    8.2637   -4.7956 H   0  0  0  0  0  0  0  0  0  0  0  0
  -28.5392    8.2086   -7.0587 H   0  0  0  0  0  0  0  0  0  0  0  0
  -29.7527    6.8590   -6.9837 H   0  0  0  0  0  0  0  0  0  0  0  0
  -30.8541    9.5045   -6.2683 H   0  0  0  0  0  0  0  0  0  0  0  0
  -26.7330    7.0356   -3.6721 H   0  0  0  0  0  0  0  0  0  0  0  0
  -26.2059    6.3739   -5.1258 H   0  0  0  0  0  0  0  0  0  0  0  0
  -27.3911    7.5674   -5.1258 H   0  0  0  0  0  0  0  0  0  0  0  0
  -29.6962   10.4780   -7.8925 H   0  0  0  0  0  0  0  0  0  0  0  0
  -29.5040    9.0783   -8.8052 H   0  0  0  0  0  0  0  0  0  0  0  0
  -30.9791    9.8863   -8.8052 H   0  0  0  0  0  0  0  0  0  0  0  0
  1  2  1  0
  1  8  2  0
  1  9  1  0
  2  3  1  0
  2 12  1  0
  3  4  1  0
  4  5  1  0
  5  6  1  0
  6  7  1  0
  6 13  1  0
  7 10  2  0
  7 11  1  0
  2 14  1  1
  3 15  1  0
  3 16  1  0
  4 17  1  0
  4 18  1  0
  5 19  1  0
  5 20  1  0
  6 21  1  1
 12 22  1  0
 12 23  1  0
 12 24  1  0
 13 25  1  0
 13 26  1  0
 13 27  1  0
M  CHG  4   9  -1  11  -1  12   1  13   1
M  END
>  <filename_input>  (19) 
8G6P_API_docked.sdf

>  <pdb_id>  (19) 
8G6P_API

>  <pose_rank>  (19) 
18

>  <num_atoms_heavy>  (19) 
13

>  <num_torsions>  (19) 
6

>  <pose>  (19) 
[-29.37017497092768, 7.823395115271381, -5.106128416944653, 2.134229505428163, -2.0339186539052063, -2.4587165738256704, -7.642328898434133, 5.445605784891246, 0.7848507022568495, 5.244334695861838, -8.893833537223744, 1.972844309464401]

>  <energy>  (19) 
-359.0626839455252

>  <inter_energy>  (19) 
-350.57916824472954

>  <intra_energy>  (19) 
4.024512309030346

>  <rmsd>  (19) 
2.16489

>  <sdf_rank>  (19) 
0

$$$$

     RDKit          3D

 27 26  0  0  0  0  0  0  0  0999 V2000
  -33.0009    7.5302  -10.0704 C   0  0  0  0  0  0  0  0  0  0  0  0
  -31.5226    7.2913   -9.7735 C   0  0  2  0  0  0  0  0  0  0  0  0
  -31.3133    6.7725   -8.3422 C   0  0  0  0  0  0  0  0  0  0  0  0
  -30.3658    7.6779   -7.5419 C   0  0  0  0  0  0  0  0  0  0  0  0
  -29.2219    6.8219   -6.9829 C   0  0  0  0  0  0  0  0  0  0  0  0
  -28.4205    7.5606   -5.9081 C   0  0  2  0  0  0  0  0  0  0  0  0
  -28.1054    6.5894   -4.7818 C   0  0  0  0  0  0  0  0  0  0  0  0
  -33.3775    8.5578  -10.6925 O   0  0  0  0  0  0  0  0  0  0  0  0
  -33.8509    6.6823   -9.7029 O   0  0  0  0  0  0  0  0  0  0  0  0
  -28.9410    6.4275   -3.8531 O   0  0  0  0  0  0  0  0  0  0  0  0
  -27.0158    5.9680   -4.7862 O   0  0  0  0  0  0  0  0  0  0  0  0
  -30.8194    8.5487   -9.9666 N   0  0  0  0  0  0  0  0  0  0  0  0
  -29.1773    8.6943   -5.3780 N   0  0  0  0  0  0  0  0  0  0  0  0
  -31.1303    6.5210  -10.4538 H   0  0  0  0  0  0  0  0  0  0  0  0
  -32.2866    6.7348   -7.8310 H   0  0  0  0  0  0  0  0  0  0  0  0
  -30.8607    5.7718   -8.4033 H   0  0  0  0  0  0  0  0  0  0  0  0
  -29.9564    8.4586   -8.1998 H   0  0  0  0  0  0  0  0  0  0  0  0
  -30.9133    8.1566   -6.7166 H   0  0  0  0  0  0  0  0  0  0  0  0
  -29.6459    5.9073   -6.5429 H   0  0  0  0  0  0  0  0  0  0  0  0
  -28.5387    6.5870   -7.8124 H   0  0  0  0  0  0  0  0  0  0  0  0
  -27.4921    7.9461   -6.3548 H   0  0  0  0  0  0  0  0  0  0  0  0
  -30.5904    8.9583   -9.0497 H   0  0  0  0  0  0  0  0  0  0  0  0
  -29.9508    8.3790  -10.4934 H   0  0  0  0  0  0  0  0  0  0  0  0
  -31.4188    9.1999  -10.4934 H   0  0  0  0  0  0  0  0  0  0  0  0
  -29.1595    8.6677   -4.3485 H   0  0  0  0  0  0  0  0  0  0  0  0
  -28.7532    9.5737   -5.7061 H   0  0  0  0  0  0  0  0  0  0  0  0
  -30.1521    8.6399   -5.7061 H   0  0  0  0  0  0  0  0  0  0  0  0
  1  2  1  0
  1  8  2  0
  1  9  1  0
  2  3  1  0
  2 12  1  0
  3  4  1  0
  4  5  1  0
  5  6  1  0
  6  7  1  0
  6 13  1  0
  7 10  2  0
  7 11  1  0
  2 14  1  6
  3 15  1  0
  3 16  1  0
  4 17  1  0
  4 18  1  0
  5 19  1  0
  5 20  1  0
  6 21  1  6
 12 22  1  0
 12 23  1  0
 12 24  1  0
 13 25  1  0
 13 26  1  0
 13 27  1  0
M  CHG  4   9  -1  11  -1  12   1  13   1
M  END
>  <filename_input>  (20) 
8G6P_API_docked.sdf

>  <pdb_id>  (20) 
8G6P_API

>  <pose_rank>  (20) 
19

>  <num_atoms_heavy>  (20) 
13

>  <num_torsions>  (20) 
6

>  <pose>  (20) 
[-30.365788604780366, 7.677931947654086, -7.541895627631569, 4.039660521181809, -1.0358182206377333, 2.0372068501152687, -17.739941191903576, -1.0866398550644634, -2.9964123115237657, 0.12727512549783915, 7.882897356885502, 3.4646908798384572]

>  <energy>  (20) 
-264.84699728908765

>  <inter_energy>  (20) 
-253.97008825894645

>  <intra_energy>  (20) 
0.0

>  <rmsd>  (20) 
2.35344

>  <sdf_rank>  (20) 
0

$$$$

     RDKit          3D

 27 26  0  0  0  0  0  0  0  0999 V2000
  -28.6797    7.1149   -3.6110 C   0  0  0  0  0  0  0  0  0  0  0  0
  -28.3542    6.9532   -5.0937 C   0  0  2  0  0  0  0  0  0  0  0  0
  -29.4451    6.1552   -5.8250 C   0  0  0  0  0  0  0  0  0  0  0  0
  -30.1846    7.0176   -6.8583 C   0  0  0  0  0  0  0  0  0  0  0  0
  -30.9188    6.0921   -7.8372 C   0  0  0  0  0  0  0  0  0  0  0  0
  -30.3987    6.2379   -9.2694 C   0  0  2  0  0  0  0  0  0  0  0  0
  -31.5463    6.6832  -10.1614 C   0  0  0  0  0  0  0  0  0  0  0  0
  -28.5946    8.2383   -3.0492 O   0  0  0  0  0  0  0  0  0  0  0  0
  -29.0527    6.1168   -2.9468 O   0  0  0  0  0  0  0  0  0  0  0  0
  -31.2934    7.2492  -11.2581 O   0  0  0  0  0  0  0  0  0  0  0  0
  -32.7293    6.4898   -9.7919 O   0  0  0  0  0  0  0  0  0  0  0  0
  -27.0723    6.2759   -5.1983 N   0  0  0  0  0  0  0  0  0  0  0  0
  -29.8608    4.9702   -9.7621 N   0  0  0  0  0  0  0  0  0  0  0  0
  -28.3078    7.9434   -5.5706 H   0  0  0  0  0  0  0  0  0  0  0  0
  -28.9781    5.3032   -6.3407 H   0  0  0  0  0  0  0  0  0  0  0  0
  -30.1768    5.8120   -5.0788 H   0  0  0  0  0  0  0  0  0  0  0  0
  -30.9109    7.6664   -6.3469 H   0  0  0  0  0  0  0  0  0  0  0  0
  -29.4659    7.6462   -7.4046 H   0  0  0  0  0  0  0  0  0  0  0  0
  -30.7781    5.0504   -7.5133 H   0  0  0  0  0  0  0  0  0  0  0  0
  -31.9826    6.3717   -7.8336 H   0  0  0  0  0  0  0  0  0  0  0  0
  -29.5894    6.9827   -9.2828 H   0  0  0  0  0  0  0  0  0  0  0  0
  -26.7078    6.0833   -4.2544 H   0  0  0  0  0  0  0  0  0  0  0  0
  -27.1933    5.3887   -5.7073 H   0  0  0  0  0  0  0  0  0  0  0  0
  -26.4076    6.8758   -5.7073 H   0  0  0  0  0  0  0  0  0  0  0  0
  -29.6067    4.3714   -8.9634 H   0  0  0  0  0  0  0  0  0  0  0  0
  -30.5726    4.4947  -10.3349 H   0  0  0  0  0  0  0  0  0  0  0  0
  -29.0242    5.1517  -10.3349 H   0  0  0  0  0  0  0  0  0  0  0  0
  1  2  1  0
  1  8  2  0
  1  9  1  0
  2  3  1  0
  2 12  1  0
  3  4  1  0
  4  5  1  0
  5  6  1  0
  6  7  1  0
  6 13  1  0
  7 10  2  0
  7 11  1  0
  2 14  1  6
  3 15  1  0
  3 16  1  0
  4 17  1  0
  4 18  1  0
  5 19  1  0
  5 20  1  0
  6 21  1  1
 12 22  1  0
 12 23  1  0
 12 24  1  0
 13 25  1  0
 13 26  1  0
 13 27  1  0
M  CHG  4   9  -1  11  -1  12   1  13   1
M  END
>  <filename_input>  (21) 
8G6P_API_docked.sdf

>  <pdb_id>  (21) 
8G6P_API

>  <pose_rank>  (21) 
20

>  <num_atoms_heavy>  (21) 
13

>  <num_torsions>  (21) 
6

>  <pose>  (21) 
[-30.18455765682737, 7.017609207925331, -6.858277885044301, -1.59193587651171, 2.130954128519925, 1.9198961868919353, -0.1526804691019961, 3.0555427038716965, -1.4192719921398922, -11.577661140163853, -9.199555662868141, 7.743831896513011]

>  <energy>  (21) 
-318.2121095169651

>  <inter_energy>  (21) 
-315.16208508606184

>  <intra_energy>  (21) 
0.0

>  <rmsd>  (21) 
2.959

>  <sdf_rank>  (21) 
0

$$$$

     RDKit          3D

 27 26  0  0  0  0  0  0  0  0999 V2000
  -29.7186    5.5732   -4.2919 C   0  0  0  0  0  0  0  0  0  0  0  0
  -29.5181    7.0776   -4.4566 C   0  0  2  0  0  0  0  0  0  0  0  0
  -28.4537    7.3899   -5.5201 C   0  0  0  0  0  0  0  0  0  0  0  0
  -29.0769    7.5756   -6.9112 C   0  0  0  0  0  0  0  0  0  0  0  0
  -30.2801    8.5197   -6.7897 C   0  0  0  0  0  0  0  0  0  0  0  0
  -31.3797    8.1861   -7.8009 C   0  0  2  0  0  0  0  0  0  0  0  0
  -32.7182    8.1784   -7.0802 C   0  0  0  0  0  0  0  0  0  0  0  0
  -29.5880    5.0229   -3.1673 O   0  0  0  0  0  0  0  0  0  0  0  0
  -30.0338    4.8781   -5.2889 O   0  0  0  0  0  0  0  0  0  0  0  0
  -33.2284    7.0795   -6.7352 O   0  0  0  0  0  0  0  0  0  0  0  0
  -33.3017    9.2636   -6.8454 O   0  0  0  0  0  0  0  0  0  0  0  0
  -29.1226    7.6192   -3.1669 N   0  0  0  0  0  0  0  0  0  0  0  0
  -31.1475    6.8786   -8.4139 N   0  0  0  0  0  0  0  0  0  0  0  0
  -30.4566    7.5390   -4.7977 H   0  0  0  0  0  0  0  0  0  0  0  0
  -27.9290    8.3147   -5.2383 H   0  0  0  0  0  0  0  0  0  0  0  0
  -27.7572    6.5398   -5.5675 H   0  0  0  0  0  0  0  0  0  0  0  0
  -28.3329    8.0104   -7.5949 H   0  0  0  0  0  0  0  0  0  0  0  0
  -29.4026    6.6030   -7.3086 H   0  0  0  0  0  0  0  0  0  0  0  0
  -30.6951    8.4362   -5.7744 H   0  0  0  0  0  0  0  0  0  0  0  0
  -29.9301    9.5420   -6.9956 H   0  0  0  0  0  0  0  0  0  0  0  0
  -31.3760    8.9445   -8.5977 H   0  0  0  0  0  0  0  0  0  0  0  0
  -29.5373    7.0513   -2.4143 H   0  0  0  0  0  0  0  0  0  0  0  0
  -28.0959    7.5990   -3.0863 H   0  0  0  0  0  0  0  0  0  0  0  0
  -29.4542    8.5910   -3.0863 H   0  0  0  0  0  0  0  0  0  0  0  0
  -31.0219    6.1710   -7.6760 H   0  0  0  0  0  0  0  0  0  0  0  0
  -31.9566    6.6250   -8.9986 H   0  0  0  0  0  0  0  0  0  0  0  0
  -30.3006    6.9191   -8.9986 H   0  0  0  0  0  0  0  0  0  0  0  0
  1  2  1  0
  1  8  2  0
  1  9  1  0
  2  3  1  0
  2 12  1  0
  3  4  1  0
  4  5  1  0
  5  6  1  0
  6  7  1  0
  6 13  1  0
  7 10  2  0
  7 11  1  0
  2 14  1  6
  3 15  1  0
  3 16  1  0
  4 17  1  0
  4 18  1  0
  5 19  1  0
  5 20  1  0
  6 21  1  6
 12 22  1  0
 12 23  1  0
 12 24  1  0
 13 25  1  0
 13 26  1  0
 13 27  1  0
M  CHG  4   9  -1  11  -1  12   1  13   1
M  END
>  <filename_input>  (22) 
8G6P_API_docked.sdf

>  <pdb_id>  (22) 
8G6P_API

>  <pose_rank>  (22) 
21

>  <num_atoms_heavy>  (22) 
13

>  <num_torsions>  (22) 
6

>  <pose>  (22) 
[-29.076900395101344, 7.5756267724691035, -6.911193686528254, -1.2221401063402306, -2.74124121966204, -0.3600369191933101, 4.132081000767588, -3.619463418838197, 3.05239146777823, 0.45063779443074714, 1.5075969941617815, 3.231514591461152]

>  <energy>  (22) 
-309.9783101479384

>  <inter_energy>  (22) 
-313.7933704882349

>  <intra_energy>  (22) 
2.8815740882963414

>  <rmsd>  (22) 
1.54051

>  <sdf_rank>  (22) 
0

$$$$

     RDKit          3D

 27 26  0  0  0  0  0  0  0  0999 V2000
  -34.3961    9.9708   -4.9339 C   0  0  0  0  0  0  0  0  0  0  0  0
  -33.8624    8.6390   -4.4124 C   0  0  2  0  0  0  0  0  0  0  0  0
  -32.6980    8.1242   -5.2731 C   0  0  0  0  0  0  0  0  0  0  0  0
  -31.3932    8.0325   -4.4686 C   0  0  0  0  0  0  0  0  0  0  0  0
  -30.2090    8.0957   -5.4421 C   0  0  0  0  0  0  0  0  0  0  0  0
  -28.9740    7.3751   -4.8958 C   0  0  2  0  0  0  0  0  0  0  0  0
  -28.7984    6.0680   -5.6519 C   0  0  0  0  0  0  0  0  0  0  0  0
  -34.5513   10.9523   -4.1610 O   0  0  0  0  0  0  0  0  0  0  0  0
  -34.6688   10.0935   -6.1533 O   0  0  0  0  0  0  0  0  0  0  0  0
  -28.5692    6.0960   -6.8903 O   0  0  0  0  0  0  0  0  0  0  0  0
  -28.8917    4.9790   -5.0365 O   0  0  0  0  0  0  0  0  0  0  0  0
  -34.9593    7.6853   -4.4180 N   0  0  0  0  0  0  0  0  0  0  0  0
  -29.1197    7.0972   -3.4673 N   0  0  0  0  0  0  0  0  0  0  0  0
  -33.4721    8.7727   -3.3927 H   0  0  0  0  0  0  0  0  0  0  0  0
  -32.9521    7.1245   -5.6551 H   0  0  0  0  0  0  0  0  0  0  0  0
  -32.5422    8.8343   -6.0987 H   0  0  0  0  0  0  0  0  0  0  0  0
  -31.3353    8.8723   -3.7605 H   0  0  0  0  0  0  0  0  0  0  0  0
  -31.3656    7.0876   -3.9061 H   0  0  0  0  0  0  0  0  0  0  0  0
  -30.5043    7.6233   -6.3906 H   0  0  0  0  0  0  0  0  0  0  0  0
  -29.9466    9.1540   -5.5872 H   0  0  0  0  0  0  0  0  0  0  0  0
  -28.0932    8.0199   -5.0322 H   0  0  0  0  0  0  0  0  0  0  0  0
  -35.2212    7.4576   -3.4482 H   0  0  0  0  0  0  0  0  0  0  0  0
  -35.7688    8.0959   -4.9048 H   0  0  0  0  0  0  0  0  0  0  0  0
  -34.6652    6.8266   -4.9048 H   0  0  0  0  0  0  0  0  0  0  0  0
  -28.7135    7.8720   -2.9236 H   0  0  0  0  0  0  0  0  0  0  0  0
  -30.1189    7.0024   -3.2361 H   0  0  0  0  0  0  0  0  0  0  0  0
  -28.6292    6.2214   -3.2361 H   0  0  0  0  0  0  0  0  0  0  0  0
  1  2  1  0
  1  8  2  0
  1  9  1  0
  2  3  1  0
  2 12  1  0
  3  4  1  0
  4  5  1  0
  5  6  1  0
  6  7  1  0
  6 13  1  0
  7 10  2  0
  7 11  1  0
  2 14  1  1
  3 15  1  0
  3 16  1  0
  4 17  1  0
  4 18  1  0
  5 19  1  0
  5 20  1  0
  6 21  1  1
 12 22  1  0
 12 23  1  0
 12 24  1  0
 13 25  1  0
 13 26  1  0
 13 27  1  0
M  CHG  4   9  -1  11  -1  12   1  13   1
M  END
>  <filename_input>  (23) 
8G6P_API_docked.sdf

>  <pdb_id>  (23) 
8G6P_API

>  <pose_rank>  (23) 
22

>  <num_atoms_heavy>  (23) 
13

>  <num_torsions>  (23) 
6

>  <pose>  (23) 
[-31.39318355374833, 8.032515433942024, -4.468646920987214, 1.2692387433342627, -4.938294738645269, -1.8162233331545017, 0.565774755855035, 3.102700723245604, -1.3774640705505126, 0.36548565996255983, 1.0352701852087396, -0.2035447875114399]

>  <energy>  (23) 
-284.24601599717766

>  <inter_energy>  (23) 
-282.915586334638

>  <intra_energy>  (23) 
0.0

>  <rmsd>  (23) 
3.07811

>  <sdf_rank>  (23) 
0

$$$$

     RDKit          3D

 27 26  0  0  0  0  0  0  0  0999 V2000
  -29.2081    5.3537   -5.6108 C   0  0  0  0  0  0  0  0  0  0  0  0
  -28.8505    6.8134   -5.3423 C   0  0  2  0  0  0  0  0  0  0  0  0
  -29.9560    7.5259   -4.5474 C   0  0  0  0  0  0  0  0  0  0  0  0
  -30.7861    8.4602   -5.4397 C   0  0  0  0  0  0  0  0  0  0  0  0
  -32.2630    8.0586   -5.3337 C   0  0  0  0  0  0  0  0  0  0  0  0
  -33.1852    9.0618   -6.0309 C   0  0  2  0  0  0  0  0  0  0  0  0
  -34.5860    8.9148   -5.4589 C   0  0  0  0  0  0  0  0  0  0  0  0
  -30.4087    4.9759   -5.6335 O   0  0  0  0  0  0  0  0  0  0  0  0
  -28.2928    4.5220   -5.8277 O   0  0  0  0  0  0  0  0  0  0  0  0
  -35.4500    9.7982   -5.7044 O   0  0  0  0  0  0  0  0  0  0  0  0
  -34.8623    7.9219   -4.7440 O   0  0  0  0  0  0  0  0  0  0  0  0
  -28.6452    7.4660   -6.6249 N   0  0  0  0  0  0  0  0  0  0  0  0
  -33.2196    8.8255   -7.4739 N   0  0  0  0  0  0  0  0  0  0  0  0
  -27.9358    6.8624   -4.7333 H   0  0  0  0  0  0  0  0  0  0  0  0
  -30.6219    6.7695   -4.1066 H   0  0  0  0  0  0  0  0  0  0  0  0
  -29.4778    8.1344   -3.7657 H   0  0  0  0  0  0  0  0  0  0  0  0
  -30.6604    9.5003   -5.1044 H   0  0  0  0  0  0  0  0  0  0  0  0
  -30.4495    8.3778   -6.4837 H   0  0  0  0  0  0  0  0  0  0  0  0
  -32.3962    7.0713   -5.8000 H   0  0  0  0  0  0  0  0  0  0  0  0
  -32.5318    8.0367   -4.2673 H   0  0  0  0  0  0  0  0  0  0  0  0
  -32.8039   10.0791   -5.8585 H   0  0  0  0  0  0  0  0  0  0  0  0
  -28.3395    8.4374   -6.4707 H   0  0  0  0  0  0  0  0  0  0  0  0
  -27.9230    6.9591   -7.1563 H   0  0  0  0  0  0  0  0  0  0  0  0
  -29.5274    7.4639   -7.1563 H   0  0  0  0  0  0  0  0  0  0  0  0
  -33.3655    7.8219   -7.6540 H   0  0  0  0  0  0  0  0  0  0  0  0
  -33.9910    9.3651   -7.8919 H   0  0  0  0  0  0  0  0  0  0  0  0
  -32.3265    9.1231   -7.8919 H   0  0  0  0  0  0  0  0  0  0  0  0
  1  2  1  0
  1  8  2  0
  1  9  1  0
  2  3  1  0
  2 12  1  0
  3  4  1  0
  4  5  1  0
  5  6  1  0
  6  7  1  0
  6 13  1  0
  7 10  2  0
  7 11  1  0
  2 14  1  1
  3 15  1  0
  3 16  1  0
  4 17  1  0
  4 18  1  0
  5 19  1  0
  5 20  1  0
  6 21  1  6
 12 22  1  0
 12 23  1  0
 12 24  1  0
 13 25  1  0
 13 26  1  0
 13 27  1  0
M  CHG  4   9  -1  11  -1  12   1  13   1
M  END
>  <filename_input>  (24) 
8G6P_API_docked.sdf

>  <pdb_id>  (24) 
8G6P_API

>  <pose_rank>  (24) 
23

>  <num_atoms_heavy>  (24) 
13

>  <num_torsions>  (24) 
6

>  <pose>  (24) 
[-30.786085833881778, 8.460199190556109, -5.439714892842884, -0.15827722862471974, 2.9068661580210895, 1.9938807223535955, 11.74128761335048, -7.047805520659776, 1.3184975808345902, 18.594650954073956, 8.973424247854943, 1.6080853746953667]

>  <energy>  (24) 
-268.7277128527577

>  <inter_energy>  (24) 
-272.1565220501005

>  <intra_energy>  (24) 
0.2426755643887604

>  <rmsd>  (24) 
2.50423

>  <sdf_rank>  (24) 
0

$$$$

     RDKit          3D

 27 26  0  0  0  0  0  0  0  0999 V2000
  -31.9699    6.9465   -9.7088 C   0  0  0  0  0  0  0  0  0  0  0  0
  -31.0821    6.2128   -8.7068 C   0  0  2  0  0  0  0  0  0  0  0  0
  -30.3137    7.1966   -7.8106 C   0  0  0  0  0  0  0  0  0  0  0  0
  -30.0513    6.6098   -6.4160 C   0  0  0  0  0  0  0  0  0  0  0  0
  -28.5488    6.3347   -6.2722 C   0  0  0  0  0  0  0  0  0  0  0  0
  -28.1969    5.7561   -4.8995 C   0  0  2  0  0  0  0  0  0  0  0  0
  -28.8048    6.6445   -3.8260 C   0  0  0  0  0  0  0  0  0  0  0  0
  -31.6894    6.9549  -10.9360 O   0  0  0  0  0  0  0  0  0  0  0  0
  -33.0024    7.5361   -9.3053 O   0  0  0  0  0  0  0  0  0  0  0  0
  -29.7031    6.1801   -3.0747 O   0  0  0  0  0  0  0  0  0  0  0  0
  -28.4114    7.8295   -3.7066 O   0  0  0  0  0  0  0  0  0  0  0  0
  -30.1571    5.3789   -9.4565 N   0  0  0  0  0  0  0  0  0  0  0  0
  -26.7475    5.6900   -4.7156 N   0  0  0  0  0  0  0  0  0  0  0  0
  -31.7069    5.5965   -8.0436 H   0  0  0  0  0  0  0  0  0  0  0  0
  -29.3497    7.4325   -8.2850 H   0  0  0  0  0  0  0  0  0  0  0  0
  -30.9269    8.1020   -7.6914 H   0  0  0  0  0  0  0  0  0  0  0  0
  -30.3714    7.3275   -5.6463 H   0  0  0  0  0  0  0  0  0  0  0  0
  -30.6170    5.6748   -6.2906 H   0  0  0  0  0  0  0  0  0  0  0  0
  -28.2440    5.6170   -7.0481 H   0  0  0  0  0  0  0  0  0  0  0  0
  -28.0177    7.2917   -6.3820 H   0  0  0  0  0  0  0  0  0  0  0  0
  -28.5992    4.7348   -4.8271 H   0  0  0  0  0  0  0  0  0  0  0  0
  -29.5666    4.8467   -8.8016 H   0  0  0  0  0  0  0  0  0  0  0  0
  -30.6877    4.7250  -10.0495 H   0  0  0  0  0  0  0  0  0  0  0  0
  -29.5616    5.9743  -10.0495 H   0  0  0  0  0  0  0  0  0  0  0  0
  -26.5291    5.6801   -3.7091 H   0  0  0  0  0  0  0  0  0  0  0  0
  -26.3845    4.8316   -5.1542 H   0  0  0  0  0  0  0  0  0  0  0  0
  -26.3079    6.5118   -5.1542 H   0  0  0  0  0  0  0  0  0  0  0  0
  1  2  1  0
  1  8  2  0
  1  9  1  0
  2  3  1  0
  2 12  1  0
  3  4  1  0
  4  5  1  0
  5  6  1  0
  6  7  1  0
  6 13  1  0
  7 10  2  0
  7 11  1  0
  2 14  1  1
  3 15  1  0
  3 16  1  0
  4 17  1  0
  4 18  1  0
  5 19  1  0
  5 20  1  0
  6 21  1  6
 12 22  1  0
 12 23  1  0
 12 24  1  0
 13 25  1  0
 13 26  1  0
 13 27  1  0
M  CHG  4   9  -1  11  -1  12   1  13   1
M  END
>  <filename_input>  (25) 
8G6P_API_docked.sdf

>  <pdb_id>  (25) 
8G6P_API

>  <pose_rank>  (25) 
24

>  <num_atoms_heavy>  (25) 
13

>  <num_torsions>  (25) 
6

>  <pose>  (25) 
[-30.0512999443116, 6.609795741098859, -6.4159730250181495, 4.642647990371002, -0.2240246252702701, -4.239851795020933, -7.335342901470251, 9.950082637946853, 9.079201559570864, -12.685164447059323, 17.134979453604952, 6.988939610377345]

>  <energy>  (25) 
-346.04297633607587

>  <inter_energy>  (25) 
-344.30439023848345

>  <intra_energy>  (25) 
2.641375770401759

>  <rmsd>  (25) 
2.62621

>  <sdf_rank>  (25) 
0

$$$$

     RDKit          3D

 27 26  0  0  0  0  0  0  0  0999 V2000
  -32.7580    7.3280   -7.7460 C   0  0  0  0  0  0  0  0  0  0  0  0
  -32.1020    8.7060   -7.7830 C   0  0  2  0  0  0  0  0  0  0  0  0
  -30.5980    8.6210   -7.4790 C   0  0  0  0  0  0  0  0  0  0  0  0
  -30.3320    8.0440   -6.0810 C   0  0  0  0  0  0  0  0  0  0  0  0
  -28.8280    7.7780   -5.9360 C   0  0  0  0  0  0  0  0  0  0  0  0
  -28.4930    7.0570   -4.6280 C   0  0  2  0  0  0  0  0  0  0  0  0
  -29.4540    5.8920   -4.4540 C   0  0  0  0  0  0  0  0  0  0  0  0
  -32.2740    6.3640   -8.3950 O   0  0  0  0  0  0  0  0  0  0  0  0
  -33.7850    7.1500   -7.0460 O   0  0  0  0  0  0  0  0  0  0  0  0
  -29.3000    4.8540   -5.1510 O   0  0  0  0  0  0  0  0  0  0  0  0
  -30.3920    5.9810   -3.6260 O   0  0  0  0  0  0  0  0  0  0  0  0
  -32.7720    9.5460   -6.8040 N   0  0  0  0  0  0  0  0  0  0  0  0
  -28.6120    7.9630   -3.4860 N   0  0  0  0  0  0  0  0  0  0  0  0
  -32.2011    9.1340   -8.7915 H   0  0  0  0  0  0  0  0  0  0  0  0
  -30.1190    7.9740   -8.2286 H   0  0  0  0  0  0  0  0  0  0  0  0
  -30.1834    9.6393   -7.5139 H   0  0  0  0  0  0  0  0  0  0  0  0
  -30.6558    8.7645   -5.3155 H   0  0  0  0  0  0  0  0  0  0  0  0
  -30.8925    7.1066   -5.9498 H   0  0  0  0  0  0  0  0  0  0  0  0
  -28.4953    7.1551   -6.7794 H   0  0  0  0  0  0  0  0  0  0  0  0
  -28.3119    8.7494   -5.9285 H   0  0  0  0  0  0  0  0  0  0  0  0
  -27.4549    6.6961   -4.6734 H   0  0  0  0  0  0  0  0  0  0  0  0
  -32.5224    9.2331   -5.8549 H   0  0  0  0  0  0  0  0  0  0  0  0
  -32.4767   10.5245   -6.9317 H   0  0  0  0  0  0  0  0  0  0  0  0
  -33.7916    9.4756   -6.9317 H   0  0  0  0  0  0  0  0  0  0  0  0
  -28.5412    7.4239   -2.6112 H   0  0  0  0  0  0  0  0  0  0  0  0
  -27.8555    8.6611   -3.5213 H   0  0  0  0  0  0  0  0  0  0  0  0
  -29.5231    8.4420   -3.5213 H   0  0  0  0  0  0  0  0  0  0  0  0
  1  2  1  0
  1  8  2  0
  1  9  1  0
  2  3  1  0
  2 12  1  0
  3  4  1  0
  4  5  1  0
  5  6  1  0
  6  7  1  0
  6 13  1  0
  7 10  2  0
  7 11  1  0
  2 14  1  6
  3 15  1  0
  3 16  1  0
  4 17  1  0
  4 18  1  0
  5 19  1  0
  5 20  1  0
  6 21  1  6
 12 22  1  0
 12 23  1  0
 12 24  1  0
 13 25  1  0
 13 26  1  0
 13 27  1  0
M  CHG  4   9  -1  11  -1  12   1  13   1
M  END
>  <filename_input>  (26) 
8G6P_API_docked.sdf

>  <pdb_id>  (26) 
8G6P_API

>  <pose_rank>  (26) 
25

>  <num_atoms_heavy>  (26) 
13

>  <num_torsions>  (26) 
6

>  <pose>  (26) 
[-30.332, 8.044, -6.081, 1e-06, 1e-06, 1e-06, 0.0, 0.0, 0.0, 0.0, 0.0, 0.0]

>  <energy>  (26) 
-310.54616935520437

>  <inter_energy>  (26) 
-314.570926687782

>  <intra_energy>  (26) 
5.68015966834768

>  <rmsd>  (26) 
0.0

>  <sdf_rank>  (26) 
0

$$$$
