
     RDKit          3D

 49 51  0  0  0  0  0  0  0  0999 V2000
  -34.0586  -62.7707  -11.3240 C   0  0  0  0  0  0  0  0  0  0  0  0
  -33.5232  -62.6302  -12.7029 C   0  0  0  0  0  0  0  0  0  0  0  0
  -32.7474  -61.7479  -12.9968 O   0  0  0  0  0  0  0  0  0  0  0  0
  -33.9334  -63.5102  -13.6263 N   0  0  0  0  0  0  0  0  0  0  0  0
  -33.5184  -63.5760  -15.0099 C   0  0  2  0  0  0  0  0  0  0  0  0
  -34.6555  -64.0760  -15.8905 C   0  0  1  0  0  0  0  0  0  0  0  0
  -35.7907  -63.2055  -15.7955 O   0  0  0  0  0  0  0  0  0  0  0  0
  -34.1700  -64.1787  -17.3307 C   0  0  2  0  0  0  0  0  0  0  0  0
  -35.1608  -64.7789  -18.1526 O   0  0  0  0  0  0  0  0  0  0  0  0
  -32.9137  -65.0508  -17.4187 C   0  0  1  0  0  0  0  0  0  0  0  0
  -32.3236  -65.0652  -18.7778 C   0  0  0  0  0  0  0  0  0  0  0  0
  -31.2435  -64.1040  -18.8994 O   0  0  0  0  0  0  0  0  0  0  0  0
  -31.9061  -64.4830  -16.5812 O   0  0  0  0  0  0  0  0  0  0  0  0
  -32.2736  -64.4816  -15.2099 C   0  0  1  0  0  0  0  0  0  0  0  0
  -31.2253  -63.9639  -14.4630 O   0  0  0  0  0  0  0  0  0  0  0  0
  -29.8833  -64.1883  -14.9620 C   0  0  0  0  0  0  0  0  0  0  0  0
  -29.1116  -62.9012  -15.1656 C   0  0  0  0  0  0  0  0  0  0  0  0
  -28.9168  -61.9535  -13.9953 C   0  0  0  0  0  0  0  0  0  0  0  0
  -29.6145  -60.7526  -13.9701 C   0  0  0  0  0  0  0  0  0  0  0  0
  -29.5345  -59.8444  -12.9136 C   0  0  0  0  0  0  0  0  0  0  0  0
  -28.7233  -60.1836  -11.8641 C   0  0  0  0  0  0  0  0  0  0  0  0
  -28.4646  -59.3825  -10.7908 O   0  0  0  0  0  0  0  0  0  0  0  0
  -27.6169  -60.1391   -9.8785 C   0  0  0  0  0  0  0  0  0  0  0  0
  -27.1769  -61.4127  -10.5758 C   0  0  0  0  0  0  0  0  0  0  0  0
  -27.9944  -61.3656  -11.8461 C   0  0  0  0  0  0  0  0  0  0  0  0
  -28.1254  -62.2797  -12.8923 C   0  0  0  0  0  0  0  0  0  0  0  0
  -33.2599  -62.5610  -10.5973 H   0  0  0  0  0  0  0  0  0  0  0  0
  -34.8843  -62.0589  -11.1769 H   0  0  0  0  0  0  0  0  0  0  0  0
  -34.4282  -63.7963  -11.1769 H   0  0  0  0  0  0  0  0  0  0  0  0
  -34.6176  -64.2154  -13.3175 H   0  0  0  0  0  0  0  0  0  0  0  0
  -33.2444  -62.5523  -15.3050 H   0  0  0  0  0  0  0  0  0  0  0  0
  -34.9695  -65.0721  -15.5453 H   0  0  0  0  0  0  0  0  0  0  0  0
  -36.0030  -63.0428  -14.8424 H   0  0  0  0  0  0  0  0  0  0  0  0
  -33.9530  -63.1560  -17.6730 H   0  0  0  0  0  0  0  0  0  0  0  0
  -35.8529  -65.1982  -17.5822 H   0  0  0  0  0  0  0  0  0  0  0  0
  -33.2152  -66.0680  -17.1283 H   0  0  0  0  0  0  0  0  0  0  0  0
  -31.9316  -66.0715  -18.9865 H   0  0  0  0  0  0  0  0  0  0  0  0
  -33.1096  -64.7937  -19.4980 H   0  0  0  0  0  0  0  0  0  0  0  0
  -30.9395  -63.8334  -17.9969 H   0  0  0  0  0  0  0  0  0  0  0  0
  -32.5020  -65.5086  -14.8888 H   0  0  0  0  0  0  0  0  0  0  0  0
  -29.3393  -64.8139  -14.2390 H   0  0  0  0  0  0  0  0  0  0  0  0
  -29.9715  -64.6808  -15.9416 H   0  0  0  0  0  0  0  0  0  0  0  0
  -28.1090  -63.1819  -15.5204 H   0  0  0  0  0  0  0  0  0  0  0  0
  -29.7436  -62.3280  -15.8600 H   0  0  0  0  0  0  0  0  0  0  0  0
  -30.2617  -60.5055  -14.8245 H   0  0  0  0  0  0  0  0  0  0  0  0
  -30.0973  -58.8993  -12.9236 H   0  0  0  0  0  0  0  0  0  0  0  0
  -27.3424  -59.8378   -8.8568 H   0  0  0  0  0  0  0  0  0  0  0  0
  -26.4529  -62.1714  -10.2439 H   0  0  0  0  0  0  0  0  0  0  0  0
  -27.6091  -63.2500  -12.8483 H   0  0  0  0  0  0  0  0  0  0  0  0
  1  2  1  0
  2  3  2  0
  2  4  1  0
  5  4  1  0
  5  6  1  0
  5 14  1  0
  6  7  1  0
  6  8  1  0
  8  9  1  0
  8 10  1  0
 10 11  1  0
 10 13  1  0
 11 12  1  0
 13 14  1  0
 14 15  1  0
 15 16  1  0
 16 17  1  0
 17 18  1  0
 18 19  2  0
 18 26  1  0
 19 20  1  0
 20 21  2  0
 21 22  1  0
 21 25  1  0
 22 23  1  0
 23 24  2  0
 24 25  1  0
 25 26  2  0
  1 27  1  0
  1 28  1  0
  1 29  1  0
  4 30  1  0
  5 31  1  6
  6 32  1  1
  7 33  1  0
  8 34  1  6
  9 35  1  0
 10 36  1  1
 11 37  1  0
 11 38  1  0
 12 39  1  0
 14 40  1  1
 16 41  1  0
 16 42  1  0
 17 43  1  0
 17 44  1  0
 19 45  1  0
 20 46  1  0
 23 47  1  0
 24 48  1  0
 26 49  1  0
M  END
>  <filename_input>  (1) 
8GFD_ZHR_docked.sdf

>  <pdb_id>  (1) 
8GFD_ZHR

>  <pose_rank>  (1) 
0

>  <num_atoms_heavy>  (1) 
26

>  <num_torsions>  (1) 
6

>  <pose>  (1) 
[-33.51837250612942, -63.57596768119671, -15.00993007175455, -1.6118388504237071, -0.7277763151146686, -3.1976545881077443, 5.884912103178583, -1.543538526840821, 0.9004017762594972, 9.930607822383946, -10.632075178932059, -4.613367320350271]

>  <energy>  (1) 
-616.3488329391715

>  <inter_energy>  (1) 
-628.1089761198241

>  <intra_energy>  (1) 
9.748726550022571

>  <rmsd>  (1) 
3.50772

>  <sdf_rank>  (1) 
0

$$$$

     RDKit          3D

 49 51  0  0  0  0  0  0  0  0999 V2000
  -28.8717  -63.5172  -14.3400 C   0  0  0  0  0  0  0  0  0  0  0  0
  -30.1005  -64.2957  -14.6430 C   0  0  0  0  0  0  0  0  0  0  0  0
  -30.2836  -65.3999  -14.1806 O   0  0  0  0  0  0  0  0  0  0  0  0
  -31.0075  -63.7412  -15.4585 N   0  0  0  0  0  0  0  0  0  0  0  0
  -32.2777  -64.3052  -15.8582 C   0  0  2  0  0  0  0  0  0  0  0  0
  -32.4437  -64.2415  -17.3705 C   0  0  1  0  0  0  0  0  0  0  0  0
  -31.3956  -64.9672  -18.0265 O   0  0  0  0  0  0  0  0  0  0  0  0
  -33.8094  -64.7985  -17.7515 C   0  0  2  0  0  0  0  0  0  0  0  0
  -34.0545  -64.6203  -19.1391 O   0  0  0  0  0  0  0  0  0  0  0  0
  -34.9231  -64.0694  -16.9935 C   0  0  1  0  0  0  0  0  0  0  0  0
  -36.2579  -64.6699  -17.2247 C   0  0  0  0  0  0  0  0  0  0  0  0
  -37.1321  -64.4799  -16.0824 O   0  0  0  0  0  0  0  0  0  0  0  0
  -34.6884  -64.2116  -15.5922 O   0  0  0  0  0  0  0  0  0  0  0  0
  -33.4785  -63.5961  -15.1765 C   0  0  1  0  0  0  0  0  0  0  0  0
  -33.3517  -63.7344  -13.8019 O   0  0  0  0  0  0  0  0  0  0  0  0
  -33.1971  -62.5201  -13.0261 C   0  0  0  0  0  0  0  0  0  0  0  0
  -32.5779  -62.7688  -11.6666 C   0  0  0  0  0  0  0  0  0  0  0  0
  -31.1955  -62.2187  -11.3631 C   0  0  0  0  0  0  0  0  0  0  0  0
  -30.9721  -60.8511  -11.4598 C   0  0  0  0  0  0  0  0  0  0  0  0
  -29.7490  -60.2531  -11.1536 C   0  0  0  0  0  0  0  0  0  0  0  0
  -28.7409  -61.0807  -10.7371 C   0  0  0  0  0  0  0  0  0  0  0  0
  -27.4637  -60.6795  -10.4754 O   0  0  0  0  0  0  0  0  0  0  0  0
  -26.7317  -61.8453   -9.9976 C   0  0  0  0  0  0  0  0  0  0  0  0
  -27.6018  -63.0727  -10.1933 C   0  0  0  0  0  0  0  0  0  0  0  0
  -28.9083  -62.4556  -10.6360 C   0  0  0  0  0  0  0  0  0  0  0  0
  -30.1534  -63.0263  -10.9034 C   0  0  0  0  0  0  0  0  0  0  0  0
  -28.7471  -63.4382  -13.2499 H   0  0  0  0  0  0  0  0  0  0  0  0
  -27.9984  -64.0272  -14.7729 H   0  0  0  0  0  0  0  0  0  0  0  0
  -28.9598  -62.5098  -14.7729 H   0  0  0  0  0  0  0  0  0  0  0  0
  -30.7752  -62.8139  -15.8418 H   0  0  0  0  0  0  0  0  0  0  0  0
  -32.2726  -65.3551  -15.5302 H   0  0  0  0  0  0  0  0  0  0  0  0
  -32.3789  -63.1934  -17.6979 H   0  0  0  0  0  0  0  0  0  0  0  0
  -30.8032  -65.3774  -17.3476 H   0  0  0  0  0  0  0  0  0  0  0  0
  -33.8060  -65.8681  -17.4948 H   0  0  0  0  0  0  0  0  0  0  0  0
  -34.8490  -64.0427  -19.2624 H   0  0  0  0  0  0  0  0  0  0  0  0
  -34.9133  -63.0270  -17.3447 H   0  0  0  0  0  0  0  0  0  0  0  0
  -36.7145  -64.1970  -18.1067 H   0  0  0  0  0  0  0  0  0  0  0  0
  -36.1271  -65.7505  -17.3830 H   0  0  0  0  0  0  0  0  0  0  0  0
  -36.6129  -64.5927  -15.2471 H   0  0  0  0  0  0  0  0  0  0  0  0
  -33.4923  -62.5319  -15.4546 H   0  0  0  0  0  0  0  0  0  0  0  0
  -32.5522  -61.8256  -13.5845 H   0  0  0  0  0  0  0  0  0  0  0  0
  -34.2008  -62.1012  -12.8619 H   0  0  0  0  0  0  0  0  0  0  0  0
  -33.2633  -62.3416  -10.9198 H   0  0  0  0  0  0  0  0  0  0  0  0
  -32.4330  -63.8590  -11.6440 H   0  0  0  0  0  0  0  0  0  0  0  0
  -31.7997  -60.2082  -11.7940 H   0  0  0  0  0  0  0  0  0  0  0  0
  -29.6016  -59.1667  -11.2427 H   0  0  0  0  0  0  0  0  0  0  0  0
  -25.7193  -61.8369   -9.5676 H   0  0  0  0  0  0  0  0  0  0  0  0
  -27.3481  -64.1335  -10.0505 H   0  0  0  0  0  0  0  0  0  0  0  0
  -30.3126  -64.1043  -10.7531 H   0  0  0  0  0  0  0  0  0  0  0  0
  1  2  1  0
  2  3  2  0
  2  4  1  0
  5  4  1  0
  5  6  1  0
  5 14  1  0
  6  7  1  0
  6  8  1  0
  8  9  1  0
  8 10  1  0
 10 11  1  0
 10 13  1  0
 11 12  1  0
 13 14  1  0
 14 15  1  0
 15 16  1  0
 16 17  1  0
 17 18  1  0
 18 19  2  0
 18 26  1  0
 19 20  1  0
 20 21  2  0
 21 22  1  0
 21 25  1  0
 22 23  1  0
 23 24  2  0
 24 25  1  0
 25 26  2  0
  1 27  1  0
  1 28  1  0
  1 29  1  0
  4 30  1  0
  5 31  1  1
  6 32  1  6
  7 33  1  0
  8 34  1  6
  9 35  1  0
 10 36  1  6
 11 37  1  0
 11 38  1  0
 12 39  1  0
 14 40  1  1
 16 41  1  0
 16 42  1  0
 17 43  1  0
 17 44  1  0
 19 45  1  0
 20 46  1  0
 23 47  1  0
 24 48  1  0
 26 49  1  0
M  END
>  <filename_input>  (2) 
8GFD_ZHR_docked.sdf

>  <pdb_id>  (2) 
8GFD_ZHR

>  <pose_rank>  (2) 
1

>  <num_atoms_heavy>  (2) 
26

>  <num_torsions>  (2) 
6

>  <pose>  (2) 
[-32.27767184393949, -64.3051557161654, -15.858210192894742, 2.8917800476430826, 0.9123017588274371, 5.164902360970194, 6.185551846965786, -0.5973572375887944, -6.9934476076266225, -7.569131727007736, -3.372219761555499, -1.7097069454348197]

>  <energy>  (2) 
-612.7964064490279

>  <inter_energy>  (2) 
-614.5601478999694

>  <intra_energy>  (2) 
2.7235715814151398

>  <rmsd>  (2) 
0.961874

>  <sdf_rank>  (2) 
0

$$$$

     RDKit          3D

 49 51  0  0  0  0  0  0  0  0999 V2000
  -35.3037  -65.0171  -13.0224 C   0  0  0  0  0  0  0  0  0  0  0  0
  -34.5053  -64.3191  -14.0632 C   0  0  0  0  0  0  0  0  0  0  0  0
  -34.1011  -63.1888  -13.9027 O   0  0  0  0  0  0  0  0  0  0  0  0
  -34.2488  -64.9776  -15.2016 N   0  0  0  0  0  0  0  0  0  0  0  0
  -33.4711  -64.5031  -16.3245 C   0  0  2  0  0  0  0  0  0  0  0  0
  -34.2002  -64.7666  -17.6350 C   0  0  1  0  0  0  0  0  0  0  0  0
  -35.4723  -64.1055  -17.6492 O   0  0  0  0  0  0  0  0  0  0  0  0
  -33.3332  -64.2991  -18.7970 C   0  0  2  0  0  0  0  0  0  0  0  0
  -33.9200  -64.6620  -20.0385 O   0  0  0  0  0  0  0  0  0  0  0  0
  -31.9488  -64.9521  -18.7378 C   0  0  1  0  0  0  0  0  0  0  0  0
  -31.0235  -64.4211  -19.7661 C   0  0  0  0  0  0  0  0  0  0  0  0
  -30.9245  -65.3145  -20.9052 O   0  0  0  0  0  0  0  0  0  0  0  0
  -31.3438  -64.6233  -17.4869 O   0  0  0  0  0  0  0  0  0  0  0  0
  -32.0603  -65.1484  -16.3795 C   0  0  1  0  0  0  0  0  0  0  0  0
  -31.3822  -64.8297  -15.2119 O   0  0  0  0  0  0  0  0  0  0  0  0
  -30.8216  -63.4967  -15.1150 C   0  0  0  0  0  0  0  0  0  0  0  0
  -29.3569  -63.5042  -14.7304 C   0  0  0  0  0  0  0  0  0  0  0  0
  -28.9172  -62.8186  -13.4489 C   0  0  0  0  0  0  0  0  0  0  0  0
  -27.7031  -63.1697  -12.8725 C   0  0  0  0  0  0  0  0  0  0  0  0
  -27.1975  -62.5593  -11.7241 C   0  0  0  0  0  0  0  0  0  0  0  0
  -27.9566  -61.5672  -11.1635 C   0  0  0  0  0  0  0  0  0  0  0  0
  -27.6565  -60.9221   -9.9996 O   0  0  0  0  0  0  0  0  0  0  0  0
  -28.6751  -59.9006   -9.7943 C   0  0  0  0  0  0  0  0  0  0  0  0
  -29.7751  -60.1058  -10.8188 C   0  0  0  0  0  0  0  0  0  0  0  0
  -29.1832  -61.1875  -11.6926 C   0  0  0  0  0  0  0  0  0  0  0  0
  -29.6473  -61.7801  -12.8676 C   0  0  0  0  0  0  0  0  0  0  0  0
  -34.9539  -64.7112  -12.0254 H   0  0  0  0  0  0  0  0  0  0  0  0
  -36.3653  -64.7522  -13.1357 H   0  0  0  0  0  0  0  0  0  0  0  0
  -35.1831  -66.1046  -13.1357 H   0  0  0  0  0  0  0  0  0  0  0  0
  -34.6486  -65.9231  -15.2859 H   0  0  0  0  0  0  0  0  0  0  0  0
  -33.3435  -63.4197  -16.1832 H   0  0  0  0  0  0  0  0  0  0  0  0
  -34.3846  -65.8463  -17.7359 H   0  0  0  0  0  0  0  0  0  0  0  0
  -35.7733  -63.9490  -16.7191 H   0  0  0  0  0  0  0  0  0  0  0  0
  -33.2464  -63.2055  -18.7167 H   0  0  0  0  0  0  0  0  0  0  0  0
  -34.7503  -65.1754  -19.8735 H   0  0  0  0  0  0  0  0  0  0  0  0
  -32.1023  -66.0306  -18.8902 H   0  0  0  0  0  0  0  0  0  0  0  0
  -31.3937  -63.4439  -20.1095 H   0  0  0  0  0  0  0  0  0  0  0  0
  -30.0248  -64.3254  -19.3150 H   0  0  0  0  0  0  0  0  0  0  0  0
  -30.8212  -66.2459  -20.5861 H   0  0  0  0  0  0  0  0  0  0  0  0
  -32.1513  -66.2396  -16.4838 H   0  0  0  0  0  0  0  0  0  0  0  0
  -30.9267  -62.9993  -16.0905 H   0  0  0  0  0  0  0  0  0  0  0  0
  -31.3695  -62.9630  -14.3245 H   0  0  0  0  0  0  0  0  0  0  0  0
  -29.0524  -64.5582  -14.6502 H   0  0  0  0  0  0  0  0  0  0  0  0
  -28.8791  -62.9062  -15.5205 H   0  0  0  0  0  0  0  0  0  0  0  0
  -27.1113  -63.9679  -13.3445 H   0  0  0  0  0  0  0  0  0  0  0  0
  -26.2333  -62.8612  -11.2891 H   0  0  0  0  0  0  0  0  0  0  0  0
  -28.6506  -59.1136   -9.0261 H   0  0  0  0  0  0  0  0  0  0  0  0
  -30.7482  -59.5999  -10.9035 H   0  0  0  0  0  0  0  0  0  0  0  0
  -30.5815  -61.4316  -13.3324 H   0  0  0  0  0  0  0  0  0  0  0  0
  1  2  1  0
  2  3  2  0
  2  4  1  0
  5  4  1  0
  5  6  1  0
  5 14  1  0
  6  7  1  0
  6  8  1  0
  8  9  1  0
  8 10  1  0
 10 11  1  0
 10 13  1  0
 11 12  1  0
 13 14  1  0
 14 15  1  0
 15 16  1  0
 16 17  1  0
 17 18  1  0
 18 19  2  0
 18 26  1  0
 19 20  1  0
 20 21  2  0
 21 22  1  0
 21 25  1  0
 22 23  1  0
 23 24  2  0
 24 25  1  0
 25 26  2  0
  1 27  1  0
  1 28  1  0
  1 29  1  0
  4 30  1  0
  5 31  1  1
  6 32  1  6
  7 33  1  0
  8 34  1  6
  9 35  1  0
 10 36  1  6
 11 37  1  0
 11 38  1  0
 12 39  1  0
 14 40  1  6
 16 41  1  0
 16 42  1  0
 17 43  1  0
 17 44  1  0
 19 45  1  0
 20 46  1  0
 23 47  1  0
 24 48  1  0
 26 49  1  0
M  END
>  <filename_input>  (3) 
8GFD_ZHR_docked.sdf

>  <pdb_id>  (3) 
8GFD_ZHR

>  <pose_rank>  (3) 
2

>  <num_atoms_heavy>  (3) 
26

>  <num_torsions>  (3) 
6

>  <pose>  (3) 
[-33.47105023430649, -64.50309694514405, -16.324479081706748, 0.9052849611053936, 0.10501812861106787, 2.721009985202168, 6.133459972797748, 1.3061311469191759, 2.1644873307407706, 5.534946503132444, 5.133996341357266, 0.057091692265887055]

>  <energy>  (3) 
-622.1901804410819

>  <inter_energy>  (3) 
-623.0787579344676

>  <intra_energy>  (3) 
3.268035418021542

>  <rmsd>  (3) 
3.98449

>  <sdf_rank>  (3) 
0

$$$$

     RDKit          3D

 49 51  0  0  0  0  0  0  0  0999 V2000
  -33.2739  -65.6084  -19.2974 C   0  0  0  0  0  0  0  0  0  0  0  0
  -33.0119  -65.7729  -17.8440 C   0  0  0  0  0  0  0  0  0  0  0  0
  -32.3729  -66.7080  -17.4151 O   0  0  0  0  0  0  0  0  0  0  0  0
  -33.5150  -64.8534  -17.0093 N   0  0  0  0  0  0  0  0  0  0  0  0
  -33.3560  -64.8029  -15.5730 C   0  0  2  0  0  0  0  0  0  0  0  0
  -34.6991  -64.9720  -14.8757 C   0  0  1  0  0  0  0  0  0  0  0  0
  -35.2970  -66.2274  -15.2248 O   0  0  0  0  0  0  0  0  0  0  0  0
  -34.5017  -64.8657  -13.3690 C   0  0  2  0  0  0  0  0  0  0  0  0
  -35.7531  -64.8740  -12.6973 O   0  0  0  0  0  0  0  0  0  0  0  0
  -33.7966  -63.5553  -13.0054 C   0  0  1  0  0  0  0  0  0  0  0  0
  -33.4566  -63.4711  -11.5657 C   0  0  0  0  0  0  0  0  0  0  0  0
  -32.1111  -63.9488  -11.3077 O   0  0  0  0  0  0  0  0  0  0  0  0
  -32.5430  -63.5087  -13.6875 O   0  0  0  0  0  0  0  0  0  0  0  0
  -32.6906  -63.4829  -15.0993 C   0  0  1  0  0  0  0  0  0  0  0  0
  -31.4353  -63.3864  -15.6820 O   0  0  0  0  0  0  0  0  0  0  0  0
  -30.3491  -64.0949  -15.0349 C   0  0  0  0  0  0  0  0  0  0  0  0
  -29.0704  -63.2852  -14.9837 C   0  0  0  0  0  0  0  0  0  0  0  0
  -28.7116  -62.5345  -13.7135 C   0  0  0  0  0  0  0  0  0  0  0  0
  -28.9466  -61.1672  -13.6430 C   0  0  0  0  0  0  0  0  0  0  0  0
  -28.6934  -60.4063  -12.5010 C   0  0  0  0  0  0  0  0  0  0  0  0
  -28.1928  -61.0689  -11.4125 C   0  0  0  0  0  0  0  0  0  0  0  0
  -27.8130  -60.4723  -10.2460 O   0  0  0  0  0  0  0  0  0  0  0  0
  -27.4056  -61.5298   -9.3300 C   0  0  0  0  0  0  0  0  0  0  0  0
  -27.3486  -62.8364  -10.0991 C   0  0  0  0  0  0  0  0  0  0  0  0
  -27.9279  -62.4320  -11.4351 C   0  0  0  0  0  0  0  0  0  0  0  0
  -28.2317  -63.1809  -12.5727 C   0  0  0  0  0  0  0  0  0  0  0  0
  -34.1978  -65.0287  -19.4401 H   0  0  0  0  0  0  0  0  0  0  0  0
  -32.4316  -65.0767  -19.7640 H   0  0  0  0  0  0  0  0  0  0  0  0
  -33.3864  -66.5982  -19.7640 H   0  0  0  0  0  0  0  0  0  0  0  0
  -34.0751  -64.1020  -17.4366 H   0  0  0  0  0  0  0  0  0  0  0  0
  -32.6903  -65.6353  -15.3009 H   0  0  0  0  0  0  0  0  0  0  0  0
  -35.3812  -64.1747  -15.2059 H   0  0  0  0  0  0  0  0  0  0  0  0
  -35.5324  -66.7215  -14.3998 H   0  0  0  0  0  0  0  0  0  0  0  0
  -33.8929  -65.7284  -13.0606 H   0  0  0  0  0  0  0  0  0  0  0  0
  -35.6024  -64.8730  -11.7188 H   0  0  0  0  0  0  0  0  0  0  0  0
  -34.4843  -62.7412  -13.2782 H   0  0  0  0  0  0  0  0  0  0  0  0
  -33.5319  -62.4227  -11.2415 H   0  0  0  0  0  0  0  0  0  0  0  0
  -34.1608  -64.1055  -11.0074 H   0  0  0  0  0  0  0  0  0  0  0  0
  -31.9614  -64.0020  -10.3305 H   0  0  0  0  0  0  0  0  0  0  0  0
  -33.3142  -62.6242  -15.3887 H   0  0  0  0  0  0  0  0  0  0  0  0
  -30.6522  -64.3393  -14.0061 H   0  0  0  0  0  0  0  0  0  0  0  0
  -30.1452  -65.0002  -15.6255 H   0  0  0  0  0  0  0  0  0  0  0  0
  -28.2430  -63.9804  -15.1891 H   0  0  0  0  0  0  0  0  0  0  0  0
  -29.2420  -62.4842  -15.7177 H   0  0  0  0  0  0  0  0  0  0  0  0
  -29.3519  -60.6596  -14.5307 H   0  0  0  0  0  0  0  0  0  0  0  0
  -28.8873  -59.3238  -12.4764 H   0  0  0  0  0  0  0  0  0  0  0  0
  -27.1778  -61.4023   -8.2615 H   0  0  0  0  0  0  0  0  0  0  0  0
  -26.9818  -63.8200   -9.7705 H   0  0  0  0  0  0  0  0  0  0  0  0
  -28.0942  -64.2722  -12.5707 H   0  0  0  0  0  0  0  0  0  0  0  0
  1  2  1  0
  2  3  2  0
  2  4  1  0
  5  4  1  0
  5  6  1  0
  5 14  1  0
  6  7  1  0
  6  8  1  0
  8  9  1  0
  8 10  1  0
 10 11  1  0
 10 13  1  0
 11 12  1  0
 13 14  1  0
 14 15  1  0
 15 16  1  0
 16 17  1  0
 17 18  1  0
 18 19  2  0
 18 26  1  0
 19 20  1  0
 20 21  2  0
 21 22  1  0
 21 25  1  0
 22 23  1  0
 23 24  2  0
 24 25  1  0
 25 26  2  0
  1 27  1  0
  1 28  1  0
  1 29  1  0
  4 30  1  0
  5 31  1  1
  6 32  1  6
  7 33  1  0
  8 34  1  1
  9 35  1  0
 10 36  1  6
 11 37  1  0
 11 38  1  0
 12 39  1  0
 14 40  1  1
 16 41  1  0
 16 42  1  0
 17 43  1  0
 17 44  1  0
 19 45  1  0
 20 46  1  0
 23 47  1  0
 24 48  1  0
 26 49  1  0
M  END
>  <filename_input>  (4) 
8GFD_ZHR_docked.sdf

>  <pdb_id>  (4) 
8GFD_ZHR

>  <pose_rank>  (4) 
3

>  <num_atoms_heavy>  (4) 
26

>  <num_torsions>  (4) 
6

>  <pose>  (4) 
[-33.35600472552899, -64.80293834395353, -15.57297334802606, 2.0366122653828453, -3.744742509002049, 0.3308909998724047, 0.15118469331257545, -1.6029051798013818, 14.640716121027745, 61.91333282928094, 46.63505741201496, -4.489140100507014]

>  <energy>  (4) 
-552.2195533525553

>  <inter_energy>  (4) 
-547.718910341444

>  <intra_energy>  (4) 
0.27379518267937997

>  <rmsd>  (4) 
4.13652

>  <sdf_rank>  (4) 
0

$$$$

     RDKit          3D

 49 51  0  0  0  0  0  0  0  0999 V2000
  -31.1769  -63.4400  -18.5220 C   0  0  0  0  0  0  0  0  0  0  0  0
  -32.0044  -64.4466  -17.8079 C   0  0  0  0  0  0  0  0  0  0  0  0
  -31.9326  -65.6276  -18.0666 O   0  0  0  0  0  0  0  0  0  0  0  0
  -32.8492  -64.0073  -16.8653 N   0  0  0  0  0  0  0  0  0  0  0  0
  -33.7179  -64.8101  -16.0334 C   0  0  2  0  0  0  0  0  0  0  0  0
  -35.1330  -64.8318  -16.5951 C   0  0  1  0  0  0  0  0  0  0  0  0
  -35.1434  -65.3740  -17.9223 O   0  0  0  0  0  0  0  0  0  0  0  0
  -36.0299  -65.6447  -15.6703 C   0  0  2  0  0  0  0  0  0  0  0  0
  -37.3852  -65.5641  -16.0875 O   0  0  0  0  0  0  0  0  0  0  0  0
  -35.9603  -65.1077  -14.2374 C   0  0  1  0  0  0  0  0  0  0  0  0
  -36.7060  -65.9524  -13.2750 C   0  0  0  0  0  0  0  0  0  0  0  0
  -35.8712  -67.0103  -12.7372 O   0  0  0  0  0  0  0  0  0  0  0  0
  -34.6021  -65.1544  -13.7994 O   0  0  0  0  0  0  0  0  0  0  0  0
  -33.7530  -64.3116  -14.5638 C   0  0  1  0  0  0  0  0  0  0  0  0
  -32.4683  -64.3754  -14.0441 O   0  0  0  0  0  0  0  0  0  0  0  0
  -32.2288  -63.6966  -12.7862 C   0  0  0  0  0  0  0  0  0  0  0  0
  -31.6783  -62.2980  -12.9712 C   0  0  0  0  0  0  0  0  0  0  0  0
  -30.2057  -62.0341  -12.7112 C   0  0  0  0  0  0  0  0  0  0  0  0
  -29.3082  -62.0898  -13.7700 C   0  0  0  0  0  0  0  0  0  0  0  0
  -27.9471  -61.8145  -13.6332 C   0  0  0  0  0  0  0  0  0  0  0  0
  -27.5060  -61.4725  -12.3830 C   0  0  0  0  0  0  0  0  0  0  0  0
  -26.2011  -61.2513  -12.0523 O   0  0  0  0  0  0  0  0  0  0  0  0
  -26.1703  -60.8485  -10.6523 C   0  0  0  0  0  0  0  0  0  0  0  0
  -27.5535  -61.0519  -10.0630 C   0  0  0  0  0  0  0  0  0  0  0  0
  -28.3593  -61.4150  -11.2888 C   0  0  0  0  0  0  0  0  0  0  0  0
  -29.7244  -61.6496  -11.4583 C   0  0  0  0  0  0  0  0  0  0  0  0
  -30.6562  -62.8066  -17.7887 H   0  0  0  0  0  0  0  0  0  0  0  0
  -30.4372  -63.9545  -19.1530 H   0  0  0  0  0  0  0  0  0  0  0  0
  -31.8248  -62.8138  -19.1530 H   0  0  0  0  0  0  0  0  0  0  0  0
  -32.8836  -62.9886  -16.7173 H   0  0  0  0  0  0  0  0  0  0  0  0
  -33.3028  -65.8288  -16.0365 H   0  0  0  0  0  0  0  0  0  0  0  0
  -35.5154  -63.8020  -16.6527 H   0  0  0  0  0  0  0  0  0  0  0  0
  -35.1624  -66.3626  -17.8748 H   0  0  0  0  0  0  0  0  0  0  0  0
  -35.6760  -66.6855  -15.7086 H   0  0  0  0  0  0  0  0  0  0  0  0
  -37.9738  -65.5291  -15.2923 H   0  0  0  0  0  0  0  0  0  0  0  0
  -36.3882  -64.0946  -14.2594 H   0  0  0  0  0  0  0  0  0  0  0  0
  -37.0615  -65.3218  -12.4468 H   0  0  0  0  0  0  0  0  0  0  0  0
  -37.5510  -66.4157  -13.8054 H   0  0  0  0  0  0  0  0  0  0  0  0
  -35.8956  -66.9793  -11.7480 H   0  0  0  0  0  0  0  0  0  0  0  0
  -34.1299  -63.2788  -14.5275 H   0  0  0  0  0  0  0  0  0  0  0  0
  -33.1789  -63.6307  -12.2357 H   0  0  0  0  0  0  0  0  0  0  0  0
  -31.4770  -64.2787  -12.2330 H   0  0  0  0  0  0  0  0  0  0  0  0
  -31.8754  -62.0119  -14.0149 H   0  0  0  0  0  0  0  0  0  0  0  0
  -32.1874  -61.7144  -12.1899 H   0  0  0  0  0  0  0  0  0  0  0  0
  -29.6891  -62.3643  -14.7648 H   0  0  0  0  0  0  0  0  0  0  0  0
  -27.2600  -61.8698  -14.4905 H   0  0  0  0  0  0  0  0  0  0  0  0
  -25.2924  -60.4623  -10.1137 H   0  0  0  0  0  0  0  0  0  0  0  0
  -27.8833  -60.9592   -9.0177 H   0  0  0  0  0  0  0  0  0  0  0  0
  -30.4161  -61.5324  -10.6110 H   0  0  0  0  0  0  0  0  0  0  0  0
  1  2  1  0
  2  3  2  0
  2  4  1  0
  5  4  1  0
  5  6  1  0
  5 14  1  0
  6  7  1  0
  6  8  1  0
  8  9  1  0
  8 10  1  0
 10 11  1  0
 10 13  1  0
 11 12  1  0
 13 14  1  0
 14 15  1  0
 15 16  1  0
 16 17  1  0
 17 18  1  0
 18 19  2  0
 18 26  1  0
 19 20  1  0
 20 21  2  0
 21 22  1  0
 21 25  1  0
 22 23  1  0
 23 24  2  0
 24 25  1  0
 25 26  2  0
  1 27  1  0
  1 28  1  0
  1 29  1  0
  4 30  1  0
  5 31  1  1
  6 32  1  6
  7 33  1  0
  8 34  1  1
  9 35  1  0
 10 36  1  6
 11 37  1  0
 11 38  1  0
 12 39  1  0
 14 40  1  6
 16 41  1  0
 16 42  1  0
 17 43  1  0
 17 44  1  0
 19 45  1  0
 20 46  1  0
 23 47  1  0
 24 48  1  0
 26 49  1  0
M  END
>  <filename_input>  (5) 
8GFD_ZHR_docked.sdf

>  <pdb_id>  (5) 
8GFD_ZHR

>  <pose_rank>  (5) 
4

>  <num_atoms_heavy>  (5) 
26

>  <num_torsions>  (5) 
6

>  <pose>  (5) 
[-33.71787746475629, -64.81010491678624, -16.033401303058703, -0.1901222914284938, 1.0158170209272224, 0.032406652184493005, -5.824700012749724, -1.684602587187608, 0.15962293585847456, -6.450270389773722, 5.394429679876919, -1.0900675963522894]

>  <energy>  (5) 
-535.8319302797373

>  <inter_energy>  (5) 
-537.2132990454606

>  <intra_energy>  (5) 
4.095927114341403

>  <rmsd>  (5) 
3.20498

>  <sdf_rank>  (5) 
0

$$$$

     RDKit          3D

 49 51  0  0  0  0  0  0  0  0999 V2000
  -32.5179  -64.8789  -20.9736 C   0  0  0  0  0  0  0  0  0  0  0  0
  -31.9589  -65.8433  -19.9911 C   0  0  0  0  0  0  0  0  0  0  0  0
  -31.3350  -66.8198  -20.3431 O   0  0  0  0  0  0  0  0  0  0  0  0
  -32.1736  -65.6064  -18.6899 N   0  0  0  0  0  0  0  0  0  0  0  0
  -31.6975  -66.3915  -17.5728 C   0  0  2  0  0  0  0  0  0  0  0  0
  -32.2761  -67.7993  -17.6178 C   0  0  1  0  0  0  0  0  0  0  0  0
  -31.9032  -68.4621  -18.8332 O   0  0  0  0  0  0  0  0  0  0  0  0
  -31.7932  -68.5818  -16.4034 C   0  0  2  0  0  0  0  0  0  0  0  0
  -32.4294  -69.8500  -16.3383 O   0  0  0  0  0  0  0  0  0  0  0  0
  -32.1289  -67.8353  -15.1085 C   0  0  1  0  0  0  0  0  0  0  0  0
  -31.5549  -68.4882  -13.9087 C   0  0  0  0  0  0  0  0  0  0  0  0
  -30.8286  -67.5412  -13.0835 O   0  0  0  0  0  0  0  0  0  0  0  0
  -31.5207  -66.5443  -15.1569 O   0  0  0  0  0  0  0  0  0  0  0  0
  -32.0350  -65.7378  -16.2060 C   0  0  1  0  0  0  0  0  0  0  0  0
  -31.4322  -64.4894  -16.1518 O   0  0  0  0  0  0  0  0  0  0  0  0
  -31.0399  -64.0002  -14.8452 C   0  0  0  0  0  0  0  0  0  0  0  0
  -29.6473  -63.4054  -14.8366 C   0  0  0  0  0  0  0  0  0  0  0  0
  -29.1388  -62.7112  -13.5855 C   0  0  0  0  0  0  0  0  0  0  0  0
  -29.5553  -61.4148  -13.3109 C   0  0  0  0  0  0  0  0  0  0  0  0
  -29.1781  -60.7181  -12.1622 C   0  0  0  0  0  0  0  0  0  0  0  0
  -28.3600  -61.3724  -11.2805 C   0  0  0  0  0  0  0  0  0  0  0  0
  -27.8306  -60.8175  -10.1524 O   0  0  0  0  0  0  0  0  0  0  0  0
  -27.0805  -61.8612   -9.4660 C   0  0  0  0  0  0  0  0  0  0  0  0
  -26.9960  -63.0712  -10.3775 C   0  0  0  0  0  0  0  0  0  0  0  0
  -27.9048  -62.6635  -11.5141 C   0  0  0  0  0  0  0  0  0  0  0  0
  -28.3319  -63.3574  -12.6470 C   0  0  0  0  0  0  0  0  0  0  0  0
  -32.9997  -64.0476  -20.4381 H   0  0  0  0  0  0  0  0  0  0  0  0
  -31.7068  -64.4871  -21.6051 H   0  0  0  0  0  0  0  0  0  0  0  0
  -33.2609  -65.3879  -21.6051 H   0  0  0  0  0  0  0  0  0  0  0  0
  -32.7384  -64.7761  -18.4608 H   0  0  0  0  0  0  0  0  0  0  0  0
  -30.6024  -66.4384  -17.6655 H   0  0  0  0  0  0  0  0  0  0  0  0
  -33.3743  -67.7402  -17.5938 H   0  0  0  0  0  0  0  0  0  0  0  0
  -31.4294  -69.3042  -18.6179 H   0  0  0  0  0  0  0  0  0  0  0  0
  -30.7047  -68.7015  -16.5072 H   0  0  0  0  0  0  0  0  0  0  0  0
  -32.5581  -70.1064  -15.3908 H   0  0  0  0  0  0  0  0  0  0  0  0
  -33.2261  -67.8099  -15.0348 H   0  0  0  0  0  0  0  0  0  0  0  0
  -32.3709  -68.9267  -13.3156 H   0  0  0  0  0  0  0  0  0  0  0  0
  -30.8515  -69.2655  -14.2422 H   0  0  0  0  0  0  0  0  0  0  0  0
  -30.9864  -67.7471  -12.1281 H   0  0  0  0  0  0  0  0  0  0  0  0
  -33.1253  -65.6416  -16.0958 H   0  0  0  0  0  0  0  0  0  0  0  0
  -31.7550  -63.2260  -14.5303 H   0  0  0  0  0  0  0  0  0  0  0  0
  -31.0387  -64.8579  -14.1564 H   0  0  0  0  0  0  0  0  0  0  0  0
  -28.9475  -64.2257  -15.0543 H   0  0  0  0  0  0  0  0  0  0  0  0
  -29.7085  -62.5933  -15.5761 H   0  0  0  0  0  0  0  0  0  0  0  0
  -30.2147  -60.9128  -14.0343 H   0  0  0  0  0  0  0  0  0  0  0  0
  -29.5221  -59.6905  -11.9736 H   0  0  0  0  0  0  0  0  0  0  0  0
  -26.6485  -61.7849   -8.4572 H   0  0  0  0  0  0  0  0  0  0  0  0
  -26.4235  -64.0011  -10.2457 H   0  0  0  0  0  0  0  0  0  0  0  0
  -28.0350  -64.4055  -12.7995 H   0  0  0  0  0  0  0  0  0  0  0  0
  1  2  1  0
  2  3  2  0
  2  4  1  0
  5  4  1  0
  5  6  1  0
  5 14  1  0
  6  7  1  0
  6  8  1  0
  8  9  1  0
  8 10  1  0
 10 11  1  0
 10 13  1  0
 11 12  1  0
 13 14  1  0
 14 15  1  0
 15 16  1  0
 16 17  1  0
 17 18  1  0
 18 19  2  0
 18 26  1  0
 19 20  1  0
 20 21  2  0
 21 22  1  0
 21 25  1  0
 22 23  1  0
 23 24  2  0
 24 25  1  0
 25 26  2  0
  1 27  1  0
  1 28  1  0
  1 29  1  0
  4 30  1  0
  5 31  1  6
  6 32  1  1
  7 33  1  0
  8 34  1  6
  9 35  1  0
 10 36  1  1
 11 37  1  0
 11 38  1  0
 12 39  1  0
 14 40  1  1
 16 41  1  0
 16 42  1  0
 17 43  1  0
 17 44  1  0
 19 45  1  0
 20 46  1  0
 23 47  1  0
 24 48  1  0
 26 49  1  0
M  END
>  <filename_input>  (6) 
8GFD_ZHR_docked.sdf

>  <pdb_id>  (6) 
8GFD_ZHR

>  <pose_rank>  (6) 
5

>  <num_atoms_heavy>  (6) 
26

>  <num_torsions>  (6) 
6

>  <pose>  (6) 
[-31.69748056830701, -66.3915488550694, -17.572798852823134, -0.9940631930849216, 1.0673056765083626, 0.9969190253077841, 1.0833655852918322, -0.9646408472739735, 0.90060050457585, -2.4414328321312597, -2.3229364101857395, 2.1826203967261084]

>  <energy>  (6) 
-484.9768287823388

>  <inter_energy>  (6) 
-540.8065557647606

>  <intra_energy>  (6) 
61.6567194122162

>  <rmsd>  (6) 
4.55309

>  <sdf_rank>  (6) 
0

$$$$

     RDKit          3D

 49 51  0  0  0  0  0  0  0  0999 V2000
  -25.4866  -64.2204  -10.5982 C   0  0  0  0  0  0  0  0  0  0  0  0
  -26.3349  -63.0911  -11.0599 C   0  0  0  0  0  0  0  0  0  0  0  0
  -25.8624  -62.1327  -11.6299 O   0  0  0  0  0  0  0  0  0  0  0  0
  -27.6511  -63.1574  -10.8180 N   0  0  0  0  0  0  0  0  0  0  0  0
  -28.6560  -62.1921  -11.2043 C   0  0  2  0  0  0  0  0  0  0  0  0
  -29.3528  -61.6192   -9.9776 C   0  0  1  0  0  0  0  0  0  0  0  0
  -28.4084  -60.9736   -9.1134 O   0  0  0  0  0  0  0  0  0  0  0  0
  -30.4355  -60.6441  -10.4223 C   0  0  2  0  0  0  0  0  0  0  0  0
  -31.2003  -60.2023   -9.3100 O   0  0  0  0  0  0  0  0  0  0  0  0
  -31.4014  -61.3165  -11.4028 C   0  0  1  0  0  0  0  0  0  0  0  0
  -32.3882  -60.3687  -11.9715 C   0  0  0  0  0  0  0  0  0  0  0  0
  -33.7470  -60.8474  -11.7983 O   0  0  0  0  0  0  0  0  0  0  0  0
  -30.6545  -61.7931  -12.5226 O   0  0  0  0  0  0  0  0  0  0  0  0
  -29.7152  -62.7958  -12.1651 C   0  0  1  0  0  0  0  0  0  0  0  0
  -29.0712  -63.2392  -13.3111 O   0  0  0  0  0  0  0  0  0  0  0  0
  -29.3725  -64.5834  -13.7614 C   0  0  0  0  0  0  0  0  0  0  0  0
  -30.8424  -64.7830  -14.0664 C   0  0  0  0  0  0  0  0  0  0  0  0
  -31.3105  -66.1004  -14.6589 C   0  0  0  0  0  0  0  0  0  0  0  0
  -32.2017  -66.8891  -13.9425 C   0  0  0  0  0  0  0  0  0  0  0  0
  -32.7217  -68.0892  -14.4289 C   0  0  0  0  0  0  0  0  0  0  0  0
  -32.3175  -68.4795  -15.6775 C   0  0  0  0  0  0  0  0  0  0  0  0
  -32.6604  -69.6581  -16.2728 O   0  0  0  0  0  0  0  0  0  0  0  0
  -32.0834  -69.6527  -17.6107 C   0  0  0  0  0  0  0  0  0  0  0  0
  -31.1541  -68.4592  -17.7288 C   0  0  0  0  0  0  0  0  0  0  0  0
  -31.4186  -67.7343  -16.4294 C   0  0  0  0  0  0  0  0  0  0  0  0
  -30.9472  -66.5147  -15.9418 C   0  0  0  0  0  0  0  0  0  0  0  0
  -25.4708  -64.2414   -9.4985 H   0  0  0  0  0  0  0  0  0  0  0  0
  -25.8986  -65.1673  -10.9772 H   0  0  0  0  0  0  0  0  0  0  0  0
  -24.4624  -64.0884  -10.9772 H   0  0  0  0  0  0  0  0  0  0  0  0
  -27.9825  -63.9846  -10.3015 H   0  0  0  0  0  0  0  0  0  0  0  0
  -28.1303  -61.3883  -11.7405 H   0  0  0  0  0  0  0  0  0  0  0  0
  -29.8182  -62.4385   -9.4100 H   0  0  0  0  0  0  0  0  0  0  0  0
  -28.6555  -61.1425   -8.1697 H   0  0  0  0  0  0  0  0  0  0  0  0
  -29.9285  -59.7947  -10.9034 H   0  0  0  0  0  0  0  0  0  0  0  0
  -30.7450  -60.4653   -8.4711 H   0  0  0  0  0  0  0  0  0  0  0  0
  -31.9197  -62.1081  -10.8418 H   0  0  0  0  0  0  0  0  0  0  0  0
  -32.2841  -59.3978  -11.4650 H   0  0  0  0  0  0  0  0  0  0  0  0
  -32.1915  -60.2714  -13.0494 H   0  0  0  0  0  0  0  0  0  0  0  0
  -33.9509  -60.9192  -10.8323 H   0  0  0  0  0  0  0  0  0  0  0  0
  -30.2364  -63.6295  -11.6719 H   0  0  0  0  0  0  0  0  0  0  0  0
  -28.7931  -64.7868  -14.6741 H   0  0  0  0  0  0  0  0  0  0  0  0
  -29.1058  -65.2736  -12.9474 H   0  0  0  0  0  0  0  0  0  0  0  0
  -31.3870  -64.6461  -13.1206 H   0  0  0  0  0  0  0  0  0  0  0  0
  -31.0417  -64.0545  -14.8662 H   0  0  0  0  0  0  0  0  0  0  0  0
  -32.5127  -66.5512  -12.9430 H   0  0  0  0  0  0  0  0  0  0  0  0
  -33.4241  -68.6939  -13.8365 H   0  0  0  0  0  0  0  0  0  0  0  0
  -32.2871  -70.3896  -18.4017 H   0  0  0  0  0  0  0  0  0  0  0  0
  -30.4678  -68.1918  -18.5458 H   0  0  0  0  0  0  0  0  0  0  0  0
  -30.2943  -65.8845  -16.5636 H   0  0  0  0  0  0  0  0  0  0  0  0
  1  2  1  0
  2  3  2  0
  2  4  1  0
  5  4  1  0
  5  6  1  0
  5 14  1  0
  6  7  1  0
  6  8  1  0
  8  9  1  0
  8 10  1  0
 10 11  1  0
 10 13  1  0
 11 12  1  0
 13 14  1  0
 14 15  1  0
 15 16  1  0
 16 17  1  0
 17 18  1  0
 18 19  2  0
 18 26  1  0
 19 20  1  0
 20 21  2  0
 21 22  1  0
 21 25  1  0
 22 23  1  0
 23 24  2  0
 24 25  1  0
 25 26  2  0
  1 27  1  0
  1 28  1  0
  1 29  1  0
  4 30  1  0
  5 31  1  6
  6 32  1  1
  7 33  1  0
  8 34  1  6
  9 35  1  0
 10 36  1  1
 11 37  1  0
 11 38  1  0
 12 39  1  0
 14 40  1  1
 16 41  1  0
 16 42  1  0
 17 43  1  0
 17 44  1  0
 19 45  1  0
 20 46  1  0
 23 47  1  0
 24 48  1  0
 26 49  1  0
M  END
>  <filename_input>  (7) 
8GFD_ZHR_docked.sdf

>  <pdb_id>  (7) 
8GFD_ZHR

>  <pose_rank>  (7) 
6

>  <num_atoms_heavy>  (7) 
26

>  <num_torsions>  (7) 
6

>  <pose>  (7) 
[-28.656037953164663, -62.19209216244172, -11.204283917786144, 2.581695273177467, -0.17268222358792107, 0.42915360760531884, -12.469653193092846, 0.837581096460328, 43.50103168186738, 40.226058644113806, 29.12036374433321, -0.672782761130433]

>  <energy>  (7) 
-408.17264859546026

>  <inter_energy>  (7) 
-405.91237506178635

>  <intra_energy>  (7) 
1.7587820755063273

>  <rmsd>  (7) 
7.46431

>  <sdf_rank>  (7) 
0

$$$$

     RDKit          3D

 49 51  0  0  0  0  0  0  0  0999 V2000
  -32.8501  -60.6943  -10.7892 C   0  0  0  0  0  0  0  0  0  0  0  0
  -31.3852  -60.9232  -10.8876 C   0  0  0  0  0  0  0  0  0  0  0  0
  -30.5865  -60.0514  -10.6253 O   0  0  0  0  0  0  0  0  0  0  0  0
  -30.9660  -62.1312  -11.2879 N   0  0  0  0  0  0  0  0  0  0  0  0
  -29.5967  -62.5761  -11.4223 C   0  0  2  0  0  0  0  0  0  0  0  0
  -28.8202  -62.3264  -10.1365 C   0  0  1  0  0  0  0  0  0  0  0  0
  -29.4210  -63.0244   -9.0377 O   0  0  0  0  0  0  0  0  0  0  0  0
  -27.3731  -62.7616  -10.3291 C   0  0  2  0  0  0  0  0  0  0  0  0
  -26.5885  -62.4087   -9.1989 O   0  0  0  0  0  0  0  0  0  0  0  0
  -26.7560  -62.0687  -11.5479 C   0  0  1  0  0  0  0  0  0  0  0  0
  -25.3953  -62.5663  -11.8585 C   0  0  0  0  0  0  0  0  0  0  0  0
  -24.4954  -61.4794  -12.1967 O   0  0  0  0  0  0  0  0  0  0  0  0
  -27.5404  -62.3869  -12.6978 O   0  0  0  0  0  0  0  0  0  0  0  0
  -28.8671  -61.8896  -12.6080 C   0  0  1  0  0  0  0  0  0  0  0  0
  -29.5433  -62.1951  -13.7802 O   0  0  0  0  0  0  0  0  0  0  0  0
  -29.7719  -63.5974  -14.0660 C   0  0  0  0  0  0  0  0  0  0  0  0
  -30.2916  -63.8318  -15.4689 C   0  0  0  0  0  0  0  0  0  0  0  0
  -31.6053  -64.5674  -15.6660 C   0  0  0  0  0  0  0  0  0  0  0  0
  -31.7221  -65.4833  -16.7039 C   0  0  0  0  0  0  0  0  0  0  0  0
  -32.8731  -66.2390  -16.9302 C   0  0  0  0  0  0  0  0  0  0  0  0
  -33.9197  -66.0485  -16.0683 C   0  0  0  0  0  0  0  0  0  0  0  0
  -35.1432  -66.6398  -16.1880 O   0  0  0  0  0  0  0  0  0  0  0  0
  -35.9389  -66.2276  -15.0391 C   0  0  0  0  0  0  0  0  0  0  0  0
  -35.1839  -65.1413  -14.2962 C   0  0  0  0  0  0  0  0  0  0  0  0
  -33.8590  -65.1361  -15.0230 C   0  0  0  0  0  0  0  0  0  0  0  0
  -32.6816  -64.4248  -14.7882 C   0  0  0  0  0  0  0  0  0  0  0  0
  -33.1437  -60.6484   -9.7301 H   0  0  0  0  0  0  0  0  0  0  0  0
  -33.1069  -59.7451  -11.2824 H   0  0  0  0  0  0  0  0  0  0  0  0
  -33.3842  -61.5199  -11.2824 H   0  0  0  0  0  0  0  0  0  0  0  0
  -31.6975  -62.8163  -11.5254 H   0  0  0  0  0  0  0  0  0  0  0  0
  -29.6357  -63.6562  -11.6273 H   0  0  0  0  0  0  0  0  0  0  0  0
  -28.8442  -61.2520   -9.9020 H   0  0  0  0  0  0  0  0  0  0  0  0
  -29.0926  -62.6429   -8.1852 H   0  0  0  0  0  0  0  0  0  0  0  0
  -27.3789  -63.8526  -10.4689 H   0  0  0  0  0  0  0  0  0  0  0  0
  -27.0836  -62.6314   -8.3710 H   0  0  0  0  0  0  0  0  0  0  0  0
  -26.7199  -60.9942  -11.3150 H   0  0  0  0  0  0  0  0  0  0  0  0
  -24.9999  -63.0973  -10.9801 H   0  0  0  0  0  0  0  0  0  0  0  0
  -25.4639  -63.2398  -12.7255 H   0  0  0  0  0  0  0  0  0  0  0  0
  -24.1520  -61.0647  -11.3660 H   0  0  0  0  0  0  0  0  0  0  0  0
  -28.8424  -60.8008  -12.4528 H   0  0  0  0  0  0  0  0  0  0  0  0
  -28.8223  -64.1398  -13.9475 H   0  0  0  0  0  0  0  0  0  0  0  0
  -30.5377  -63.9586  -13.3637 H   0  0  0  0  0  0  0  0  0  0  0  0
  -30.4051  -62.8431  -15.9375 H   0  0  0  0  0  0  0  0  0  0  0  0
  -29.5467  -64.5100  -15.9106 H   0  0  0  0  0  0  0  0  0  0  0  0
  -30.8654  -65.6194  -17.3804 H   0  0  0  0  0  0  0  0  0  0  0  0
  -32.9367  -66.9550  -17.7630 H   0  0  0  0  0  0  0  0  0  0  0  0
  -36.9212  -66.6352  -14.7578 H   0  0  0  0  0  0  0  0  0  0  0  0
  -35.5143  -64.5204  -13.4504 H   0  0  0  0  0  0  0  0  0  0  0  0
  -32.6021  -63.7567  -13.9179 H   0  0  0  0  0  0  0  0  0  0  0  0
  1  2  1  0
  2  3  2  0
  2  4  1  0
  5  4  1  0
  5  6  1  0
  5 14  1  0
  6  7  1  0
  6  8  1  0
  8  9  1  0
  8 10  1  0
 10 11  1  0
 10 13  1  0
 11 12  1  0
 13 14  1  0
 14 15  1  0
 15 16  1  0
 16 17  1  0
 17 18  1  0
 18 19  2  0
 18 26  1  0
 19 20  1  0
 20 21  2  0
 21 22  1  0
 21 25  1  0
 22 23  1  0
 23 24  2  0
 24 25  1  0
 25 26  2  0
  1 27  1  0
  1 28  1  0
  1 29  1  0
  4 30  1  0
  5 31  1  6
  6 32  1  1
  7 33  1  0
  8 34  1  6
  9 35  1  0
 10 36  1  1
 11 37  1  0
 11 38  1  0
 12 39  1  0
 14 40  1  1
 16 41  1  0
 16 42  1  0
 17 43  1  0
 17 44  1  0
 19 45  1  0
 20 46  1  0
 23 47  1  0
 24 48  1  0
 26 49  1  0
M  END
>  <filename_input>  (8) 
8GFD_ZHR_docked.sdf

>  <pdb_id>  (8) 
8GFD_ZHR

>  <pose_rank>  (8) 
7

>  <num_atoms_heavy>  (8) 
26

>  <num_torsions>  (8) 
6

>  <pose>  (8) 
[-29.59668039065477, -62.5761362588344, -11.422292535675501, -0.5330873840161373, 3.504314318484379, 0.16645723524867678, 9.377305873729695, 0.6559791919494337, 2.5813465499760806, -1.4727179776504156, -7.501133961586881, 1.111224046774574]

>  <energy>  (8) 
-501.28278260326437

>  <inter_energy>  (8) 
-506.6219810722573

>  <intra_energy>  (8) 
22.94865514835822

>  <rmsd>  (8) 
7.94393

>  <sdf_rank>  (8) 
0

$$$$

     RDKit          3D

 49 51  0  0  0  0  0  0  0  0999 V2000
  -32.7937  -64.3211  -19.9909 C   0  0  0  0  0  0  0  0  0  0  0  0
  -31.9245  -64.9732  -18.9774 C   0  0  0  0  0  0  0  0  0  0  0  0
  -30.8225  -65.3897  -19.2584 O   0  0  0  0  0  0  0  0  0  0  0  0
  -32.4011  -65.0983  -17.7314 N   0  0  0  0  0  0  0  0  0  0  0  0
  -31.7173  -65.6680  -16.5917 C   0  0  2  0  0  0  0  0  0  0  0  0
  -32.4442  -66.9092  -16.0921 C   0  0  1  0  0  0  0  0  0  0  0  0
  -32.5183  -67.9027  -17.1232 O   0  0  0  0  0  0  0  0  0  0  0  0
  -31.7254  -67.4543  -14.8646 C   0  0  2  0  0  0  0  0  0  0  0  0
  -32.4589  -68.5253  -14.2882 O   0  0  0  0  0  0  0  0  0  0  0  0
  -31.5832  -66.3691  -13.7929 C   0  0  1  0  0  0  0  0  0  0  0  0
  -30.7671  -66.8116  -12.6381 C   0  0  0  0  0  0  0  0  0  0  0  0
  -29.3531  -66.8339  -12.9630 O   0  0  0  0  0  0  0  0  0  0  0  0
  -30.8689  -65.2670  -14.3533 O   0  0  0  0  0  0  0  0  0  0  0  0
  -31.5669  -64.6534  -15.4266 C   0  0  1  0  0  0  0  0  0  0  0  0
  -30.8330  -63.5663  -15.8785 O   0  0  0  0  0  0  0  0  0  0  0  0
  -29.4520  -63.4754  -15.4485 C   0  0  0  0  0  0  0  0  0  0  0  0
  -29.0230  -62.0531  -15.1539 C   0  0  0  0  0  0  0  0  0  0  0  0
  -29.0800  -61.5356  -13.7276 C   0  0  0  0  0  0  0  0  0  0  0  0
  -30.1741  -60.7823  -13.3213 C   0  0  0  0  0  0  0  0  0  0  0  0
  -30.3336  -60.3072  -12.0189 C   0  0  0  0  0  0  0  0  0  0  0  0
  -29.3487  -60.6183  -11.1202 C   0  0  0  0  0  0  0  0  0  0  0  0
  -29.3016  -60.1709   -9.8324 O   0  0  0  0  0  0  0  0  0  0  0  0
  -28.1393  -60.7835   -9.2022 C   0  0  0  0  0  0  0  0  0  0  0  0
  -27.3253  -61.4848  -10.2734 C   0  0  0  0  0  0  0  0  0  0  0  0
  -28.2285  -61.3570  -11.4783 C   0  0  0  0  0  0  0  0  0  0  0  0
  -28.1125  -61.8604  -12.7746 C   0  0  0  0  0  0  0  0  0  0  0  0
  -33.5740  -63.7356  -19.4825 H   0  0  0  0  0  0  0  0  0  0  0  0
  -32.1863  -63.6540  -20.6202 H   0  0  0  0  0  0  0  0  0  0  0  0
  -33.2643  -65.0908  -20.6202 H   0  0  0  0  0  0  0  0  0  0  0  0
  -33.3571  -64.7516  -17.5679 H   0  0  0  0  0  0  0  0  0  0  0  0
  -30.7090  -65.9425  -16.9351 H   0  0  0  0  0  0  0  0  0  0  0  0
  -33.4738  -66.6388  -15.8152 H   0  0  0  0  0  0  0  0  0  0  0  0
  -32.5853  -68.8007  -16.7119 H   0  0  0  0  0  0  0  0  0  0  0  0
  -30.7350  -67.7997  -15.1960 H   0  0  0  0  0  0  0  0  0  0  0  0
  -32.4153  -68.4617  -13.3013 H   0  0  0  0  0  0  0  0  0  0  0  0
  -32.6016  -66.1190  -13.4605 H   0  0  0  0  0  0  0  0  0  0  0  0
  -30.9301  -66.1192  -11.7991 H   0  0  0  0  0  0  0  0  0  0  0  0
  -31.0753  -67.8327  -12.3690 H   0  0  0  0  0  0  0  0  0  0  0  0
  -28.8226  -66.8423  -12.1272 H   0  0  0  0  0  0  0  0  0  0  0  0
  -32.5598  -64.3286  -15.0822 H   0  0  0  0  0  0  0  0  0  0  0  0
  -29.3276  -64.0764  -14.5357 H   0  0  0  0  0  0  0  0  0  0  0  0
  -28.8232  -63.8481  -16.2705 H   0  0  0  0  0  0  0  0  0  0  0  0
  -27.9790  -61.9582  -15.4874 H   0  0  0  0  0  0  0  0  0  0  0  0
  -29.7717  -61.4430  -15.6804 H   0  0  0  0  0  0  0  0  0  0  0  0
  -30.9527  -60.5488  -14.0624 H   0  0  0  0  0  0  0  0  0  0  0  0
  -31.2104  -59.7102  -11.7277 H   0  0  0  0  0  0  0  0  0  0  0  0
  -27.8936  -60.7441   -8.1307 H   0  0  0  0  0  0  0  0  0  0  0  0
  -26.3371  -61.9612  -10.1939 H   0  0  0  0  0  0  0  0  0  0  0  0
  -27.2653  -62.5083  -13.0438 H   0  0  0  0  0  0  0  0  0  0  0  0
  1  2  1  0
  2  3  2  0
  2  4  1  0
  5  4  1  0
  5  6  1  0
  5 14  1  0
  6  7  1  0
  6  8  1  0
  8  9  1  0
  8 10  1  0
 10 11  1  0
 10 13  1  0
 11 12  1  0
 13 14  1  0
 14 15  1  0
 15 16  1  0
 16 17  1  0
 17 18  1  0
 18 19  2  0
 18 26  1  0
 19 20  1  0
 20 21  2  0
 21 22  1  0
 21 25  1  0
 22 23  1  0
 23 24  2  0
 24 25  1  0
 25 26  2  0
  1 27  1  0
  1 28  1  0
  1 29  1  0
  4 30  1  0
  5 31  1  6
  6 32  1  1
  7 33  1  0
  8 34  1  6
  9 35  1  0
 10 36  1  1
 11 37  1  0
 11 38  1  0
 12 39  1  0
 14 40  1  1
 16 41  1  0
 16 42  1  0
 17 43  1  0
 17 44  1  0
 19 45  1  0
 20 46  1  0
 23 47  1  0
 24 48  1  0
 26 49  1  0
M  END
>  <filename_input>  (9) 
8GFD_ZHR_docked.sdf

>  <pdb_id>  (9) 
8GFD_ZHR

>  <pose_rank>  (9) 
8

>  <num_atoms_heavy>  (9) 
26

>  <num_torsions>  (9) 
6

>  <pose>  (9) 
[-31.717317198391203, -65.66796271660819, -16.59174196940206, -0.9870681408282324, 1.5165736102305802, 0.8922757948586992, 0.13510350432587737, -1.9137279845360846, 1.6985743040298364, -0.9855315836864528, 2.5970193152152943, 1.8502354970097434]

>  <energy>  (9) 
-576.2265988136942

>  <inter_energy>  (9) 
-575.5180567244671

>  <intra_energy>  (9) 
0.22447623853841703

>  <rmsd>  (9) 
4.38408

>  <sdf_rank>  (9) 
0

$$$$

     RDKit          3D

 49 51  0  0  0  0  0  0  0  0999 V2000
  -33.1010  -64.2814  -20.4188 C   0  0  0  0  0  0  0  0  0  0  0  0
  -33.3417  -64.6979  -19.0130 C   0  0  0  0  0  0  0  0  0  0  0  0
  -34.4617  -64.8110  -18.5663 O   0  0  0  0  0  0  0  0  0  0  0  0
  -32.2741  -64.9392  -18.2401 N   0  0  0  0  0  0  0  0  0  0  0  0
  -32.2791  -65.3821  -16.8636 C   0  0  2  0  0  0  0  0  0  0  0  0
  -33.2225  -66.5632  -16.6808 C   0  0  1  0  0  0  0  0  0  0  0  0
  -32.8263  -67.6620  -17.5121 O   0  0  0  0  0  0  0  0  0  0  0  0
  -33.2397  -66.9721  -15.2135 C   0  0  2  0  0  0  0  0  0  0  0  0
  -34.2181  -67.9758  -14.9838 O   0  0  0  0  0  0  0  0  0  0  0  0
  -33.5924  -65.7777  -14.3216 C   0  0  1  0  0  0  0  0  0  0  0  0
  -33.4836  -66.0923  -12.8778 C   0  0  0  0  0  0  0  0  0  0  0  0
  -33.9045  -64.9731  -12.0559 O   0  0  0  0  0  0  0  0  0  0  0  0
  -32.6369  -64.7415  -14.5500 O   0  0  0  0  0  0  0  0  0  0  0  0
  -32.6749  -64.2478  -15.8806 C   0  0  1  0  0  0  0  0  0  0  0  0
  -31.7572  -63.2148  -16.0044 O   0  0  0  0  0  0  0  0  0  0  0  0
  -30.5451  -63.3084  -15.2155 C   0  0  0  0  0  0  0  0  0  0  0  0
  -29.9182  -61.9570  -14.9428 C   0  0  0  0  0  0  0  0  0  0  0  0
  -29.2047  -61.7166  -13.6242 C   0  0  0  0  0  0  0  0  0  0  0  0
  -28.5614  -62.7759  -12.9967 C   0  0  0  0  0  0  0  0  0  0  0  0
  -27.8412  -62.6374  -11.8095 C   0  0  0  0  0  0  0  0  0  0  0  0
  -27.7813  -61.3834  -11.2630 C   0  0  0  0  0  0  0  0  0  0  0  0
  -27.1926  -61.0825  -10.0699 O   0  0  0  0  0  0  0  0  0  0  0  0
  -27.2878  -59.6397   -9.8903 C   0  0  0  0  0  0  0  0  0  0  0  0
  -28.1903  -59.0790  -10.9735 C   0  0  0  0  0  0  0  0  0  0  0  0
  -28.4176  -60.2938  -11.8432 C   0  0  0  0  0  0  0  0  0  0  0  0
  -29.0935  -60.4468  -13.0544 C   0  0  0  0  0  0  0  0  0  0  0  0
  -32.5507  -63.3290  -20.4300 H   0  0  0  0  0  0  0  0  0  0  0  0
  -32.5094  -65.0528  -20.9336 H   0  0  0  0  0  0  0  0  0  0  0  0
  -34.0647  -64.1541  -20.9336 H   0  0  0  0  0  0  0  0  0  0  0  0
  -31.3509  -64.7937  -18.6730 H   0  0  0  0  0  0  0  0  0  0  0  0
  -31.2497  -65.6908  -16.6289 H   0  0  0  0  0  0  0  0  0  0  0  0
  -34.2376  -66.2658  -16.9828 H   0  0  0  0  0  0  0  0  0  0  0  0
  -32.5515  -68.4240  -16.9430 H   0  0  0  0  0  0  0  0  0  0  0  0
  -32.2355  -67.3500  -14.9709 H   0  0  0  0  0  0  0  0  0  0  0  0
  -34.3401  -68.1009  -14.0094 H   0  0  0  0  0  0  0  0  0  0  0  0
  -34.6263  -65.4945  -14.5684 H   0  0  0  0  0  0  0  0  0  0  0  0
  -34.1203  -66.9605  -12.6523 H   0  0  0  0  0  0  0  0  0  0  0  0
  -32.4296  -66.3099  -12.6506 H   0  0  0  0  0  0  0  0  0  0  0  0
  -33.8141  -65.2134  -11.0998 H   0  0  0  0  0  0  0  0  0  0  0  0
  -33.6888  -63.8890  -16.1113 H   0  0  0  0  0  0  0  0  0  0  0  0
  -30.7872  -63.7843  -14.2538 H   0  0  0  0  0  0  0  0  0  0  0  0
  -29.8190  -63.9007  -15.7917 H   0  0  0  0  0  0  0  0  0  0  0  0
  -29.1834  -61.7780  -15.7416 H   0  0  0  0  0  0  0  0  0  0  0  0
  -30.7810  -61.2762  -14.8977 H   0  0  0  0  0  0  0  0  0  0  0  0
  -28.6226  -63.7725  -13.4582 H   0  0  0  0  0  0  0  0  0  0  0  0
  -27.3445  -63.4962  -11.3345 H   0  0  0  0  0  0  0  0  0  0  0  0
  -26.7896  -59.0556   -9.1026 H   0  0  0  0  0  0  0  0  0  0  0  0
  -28.5775  -58.0565  -11.0940 H   0  0  0  0  0  0  0  0  0  0  0  0
  -29.5354  -59.5735  -13.5565 H   0  0  0  0  0  0  0  0  0  0  0  0
  1  2  1  0
  2  3  2  0
  2  4  1  0
  5  4  1  0
  5  6  1  0
  5 14  1  0
  6  7  1  0
  6  8  1  0
  8  9  1  0
  8 10  1  0
 10 11  1  0
 10 13  1  0
 11 12  1  0
 13 14  1  0
 14 15  1  0
 15 16  1  0
 16 17  1  0
 17 18  1  0
 18 19  2  0
 18 26  1  0
 19 20  1  0
 20 21  2  0
 21 22  1  0
 21 25  1  0
 22 23  1  0
 23 24  2  0
 24 25  1  0
 25 26  2  0
  1 27  1  0
  1 28  1  0
  1 29  1  0
  4 30  1  0
  5 31  1  1
  6 32  1  6
  7 33  1  0
  8 34  1  1
  9 35  1  0
 10 36  1  1
 11 37  1  0
 11 38  1  0
 12 39  1  0
 14 40  1  6
 16 41  1  0
 16 42  1  0
 17 43  1  0
 17 44  1  0
 19 45  1  0
 20 46  1  0
 23 47  1  0
 24 48  1  0
 26 49  1  0
M  END
>  <filename_input>  (10) 
8GFD_ZHR_docked.sdf

>  <pdb_id>  (10) 
8GFD_ZHR

>  <pose_rank>  (10) 
9

>  <num_atoms_heavy>  (10) 
26

>  <num_torsions>  (10) 
6

>  <pose>  (10) 
[-32.279090464604806, -65.38206525479711, -16.86360377418487, 3.1544948625639204, -3.0647843455851507, -1.3068815037403958, -3.2658202753801024, -0.02193087409541455, 27.156418860729136, 42.76262698779824, 34.89713367276429, 4.103987210609516]

>  <energy>  (10) 
-492.6834604447544

>  <inter_energy>  (10) 
-502.36547034254994

>  <intra_energy>  (10) 
21.448878509048036

>  <rmsd>  (10) 
4.11107

>  <sdf_rank>  (10) 
0

$$$$

     RDKit          3D

 49 51  0  0  0  0  0  0  0  0999 V2000
  -30.6872  -67.7814  -13.4819 C   0  0  0  0  0  0  0  0  0  0  0  0
  -30.7424  -67.2593  -14.8719 C   0  0  0  0  0  0  0  0  0  0  0  0
  -29.8106  -67.3844  -15.6354 O   0  0  0  0  0  0  0  0  0  0  0  0
  -31.8600  -66.6306  -15.2606 N   0  0  0  0  0  0  0  0  0  0  0  0
  -32.1369  -66.0771  -16.5674 C   0  0  2  0  0  0  0  0  0  0  0  0
  -31.7205  -67.0485  -17.6635 C   0  0  1  0  0  0  0  0  0  0  0  0
  -32.4256  -68.2903  -17.5352 O   0  0  0  0  0  0  0  0  0  0  0  0
  -31.9813  -66.4151  -19.0241 C   0  0  2  0  0  0  0  0  0  0  0  0
  -31.4704  -67.2350  -20.0654 O   0  0  0  0  0  0  0  0  0  0  0  0
  -31.2859  -65.0544  -19.1312 C   0  0  1  0  0  0  0  0  0  0  0  0
  -31.6259  -64.3372  -20.3824 C   0  0  0  0  0  0  0  0  0  0  0  0
  -31.6959  -65.2435  -21.5133 O   0  0  0  0  0  0  0  0  0  0  0  0
  -31.7636  -64.2154  -18.0792 O   0  0  0  0  0  0  0  0  0  0  0  0
  -31.4319  -64.7125  -16.7914 C   0  0  1  0  0  0  0  0  0  0  0  0
  -31.8847  -63.8179  -15.8326 O   0  0  0  0  0  0  0  0  0  0  0  0
  -31.0660  -63.6457  -14.6492 C   0  0  0  0  0  0  0  0  0  0  0  0
  -30.4853  -62.2516  -14.5368 C   0  0  0  0  0  0  0  0  0  0  0  0
  -29.5720  -61.9142  -13.3715 C   0  0  0  0  0  0  0  0  0  0  0  0
  -29.5697  -60.6219  -12.8621 C   0  0  0  0  0  0  0  0  0  0  0  0
  -28.8002  -60.2346  -11.7643 C   0  0  0  0  0  0  0  0  0  0  0  0
  -28.0228  -61.1988  -11.1806 C   0  0  0  0  0  0  0  0  0  0  0  0
  -27.1510  -60.9790  -10.1547 O   0  0  0  0  0  0  0  0  0  0  0  0
  -26.5792  -62.2679   -9.7871 C   0  0  0  0  0  0  0  0  0  0  0  0
  -27.0000  -63.2935  -10.8230 C   0  0  0  0  0  0  0  0  0  0  0  0
  -27.9789  -62.5019  -11.6590 C   0  0  0  0  0  0  0  0  0  0  0  0
  -28.7916  -62.8776  -12.7294 C   0  0  0  0  0  0  0  0  0  0  0  0
  -30.7755  -66.9454  -12.7724 H   0  0  0  0  0  0  0  0  0  0  0  0
  -31.5159  -68.4869  -13.3221 H   0  0  0  0  0  0  0  0  0  0  0  0
  -29.7295  -68.2983  -13.3221 H   0  0  0  0  0  0  0  0  0  0  0  0
  -32.6014  -66.5309  -14.5525 H   0  0  0  0  0  0  0  0  0  0  0  0
  -33.2231  -65.9097  -16.6142 H   0  0  0  0  0  0  0  0  0  0  0  0
  -30.6461  -67.2639  -17.5673 H   0  0  0  0  0  0  0  0  0  0  0  0
  -32.5467  -68.5034  -16.5760 H   0  0  0  0  0  0  0  0  0  0  0  0
  -33.0706  -66.2993  -19.1240 H   0  0  0  0  0  0  0  0  0  0  0  0
  -30.9899  -68.0063  -19.6725 H   0  0  0  0  0  0  0  0  0  0  0  0
  -30.2041  -65.2494  -19.0910 H   0  0  0  0  0  0  0  0  0  0  0  0
  -32.6017  -63.8449  -20.2581 H   0  0  0  0  0  0  0  0  0  0  0  0
  -30.8364  -63.5976  -20.5814 H   0  0  0  0  0  0  0  0  0  0  0  0
  -31.7678  -66.1750  -21.1857 H   0  0  0  0  0  0  0  0  0  0  0  0
  -30.3416  -64.8370  -16.7145 H   0  0  0  0  0  0  0  0  0  0  0  0
  -31.6855  -63.8414  -13.7615 H   0  0  0  0  0  0  0  0  0  0  0  0
  -30.2248  -64.3507  -14.7222 H   0  0  0  0  0  0  0  0  0  0  0  0
  -29.9108  -62.0690  -15.4569 H   0  0  0  0  0  0  0  0  0  0  0  0
  -31.3675  -61.6171  -14.3659 H   0  0  0  0  0  0  0  0  0  0  0  0
  -30.2056  -59.8670  -13.3477 H   0  0  0  0  0  0  0  0  0  0  0  0
  -28.8174  -59.2022  -11.3853 H   0  0  0  0  0  0  0  0  0  0  0  0
  -25.9489  -62.4641   -8.9072 H   0  0  0  0  0  0  0  0  0  0  0  0
  -26.6773  -64.3390  -10.9359 H   0  0  0  0  0  0  0  0  0  0  0  0
  -28.8171  -63.9249  -13.0647 H   0  0  0  0  0  0  0  0  0  0  0  0
  1  2  1  0
  2  3  2  0
  2  4  1  0
  5  4  1  0
  5  6  1  0
  5 14  1  0
  6  7  1  0
  6  8  1  0
  8  9  1  0
  8 10  1  0
 10 11  1  0
 10 13  1  0
 11 12  1  0
 13 14  1  0
 14 15  1  0
 15 16  1  0
 16 17  1  0
 17 18  1  0
 18 19  2  0
 18 26  1  0
 19 20  1  0
 20 21  2  0
 21 22  1  0
 21 25  1  0
 22 23  1  0
 23 24  2  0
 24 25  1  0
 25 26  2  0
  1 27  1  0
  1 28  1  0
  1 29  1  0
  4 30  1  0
  5 31  1  1
  6 32  1  1
  7 33  1  0
  8 34  1  6
  9 35  1  0
 10 36  1  1
 11 37  1  0
 11 38  1  0
 12 39  1  0
 14 40  1  6
 16 41  1  0
 16 42  1  0
 17 43  1  0
 17 44  1  0
 19 45  1  0
 20 46  1  0
 23 47  1  0
 24 48  1  0
 26 49  1  0
M  END
>  <filename_input>  (11) 
8GFD_ZHR_docked.sdf

>  <pdb_id>  (11) 
8GFD_ZHR

>  <pose_rank>  (11) 
10

>  <num_atoms_heavy>  (11) 
26

>  <num_torsions>  (11) 
6

>  <pose>  (11) 
[-32.13694396168402, -66.07710374385181, -16.56742570878996, 0.9701636714271759, 1.7606671265173157, 3.7192670921354165, 2.9547431236560264, 2.367860343671901, -1.0747623034810947, 3.4938888202973204, 4.10333442035386, 0.9739685560553358]

>  <energy>  (11) 
-517.2052544115845

>  <inter_energy>  (11) 
-568.3137770032353

>  <intra_energy>  (11) 
59.30497698336959

>  <rmsd>  (11) 
3.69366

>  <sdf_rank>  (11) 
0

$$$$

     RDKit          3D

 49 51  0  0  0  0  0  0  0  0999 V2000
  -30.1788  -68.4130  -12.0647 C   0  0  0  0  0  0  0  0  0  0  0  0
  -29.2931  -67.2655  -12.3915 C   0  0  0  0  0  0  0  0  0  0  0  0
  -28.5390  -67.2941  -13.3387 O   0  0  0  0  0  0  0  0  0  0  0  0
  -29.3446  -66.1887  -11.5958 N   0  0  0  0  0  0  0  0  0  0  0  0
  -28.5986  -64.9592  -11.7469 C   0  0  2  0  0  0  0  0  0  0  0  0
  -27.5551  -64.8232  -10.6464 C   0  0  1  0  0  0  0  0  0  0  0  0
  -26.6351  -65.9223  -10.6814 O   0  0  0  0  0  0  0  0  0  0  0  0
  -26.8222  -63.4975  -10.8077 C   0  0  2  0  0  0  0  0  0  0  0  0
  -25.9435  -63.2738   -9.7145 O   0  0  0  0  0  0  0  0  0  0  0  0
  -27.8139  -62.3305  -10.8430 C   0  0  1  0  0  0  0  0  0  0  0  0
  -27.1591  -61.0347  -11.1395 C   0  0  0  0  0  0  0  0  0  0  0  0
  -27.9893  -60.2010  -11.9887 O   0  0  0  0  0  0  0  0  0  0  0  0
  -28.7269  -62.5417  -11.9203 O   0  0  0  0  0  0  0  0  0  0  0  0
  -29.5172  -63.7079  -11.7451 C   0  0  1  0  0  0  0  0  0  0  0  0
  -30.4083  -63.8118  -12.8033 O   0  0  0  0  0  0  0  0  0  0  0  0
  -29.8479  -64.0397  -14.1203 C   0  0  0  0  0  0  0  0  0  0  0  0
  -30.5336  -63.2254  -15.1973 C   0  0  0  0  0  0  0  0  0  0  0  0
  -31.8190  -63.7412  -15.8197 C   0  0  0  0  0  0  0  0  0  0  0  0
  -31.8826  -65.0591  -16.2538 C   0  0  0  0  0  0  0  0  0  0  0  0
  -33.0356  -65.6314  -16.7926 C   0  0  0  0  0  0  0  0  0  0  0  0
  -34.1425  -64.8304  -16.8813 C   0  0  0  0  0  0  0  0  0  0  0  0
  -35.3248  -65.1985  -17.4535 O   0  0  0  0  0  0  0  0  0  0  0  0
  -36.2546  -64.0900  -17.2805 C   0  0  0  0  0  0  0  0  0  0  0  0
  -35.4858  -62.8969  -16.7441 C   0  0  0  0  0  0  0  0  0  0  0  0
  -34.1280  -63.5028  -16.4738 C   0  0  0  0  0  0  0  0  0  0  0  0
  -32.9773  -62.9652  -15.8958 C   0  0  0  0  0  0  0  0  0  0  0  0
  -30.2579  -68.5156  -10.9723 H   0  0  0  0  0  0  0  0  0  0  0  0
  -31.1780  -68.2377  -12.4899 H   0  0  0  0  0  0  0  0  0  0  0  0
  -29.7560  -69.3352  -12.4899 H   0  0  0  0  0  0  0  0  0  0  0  0
  -29.9841  -66.2425  -10.7902 H   0  0  0  0  0  0  0  0  0  0  0  0
  -28.0995  -65.0125  -12.7257 H   0  0  0  0  0  0  0  0  0  0  0  0
  -28.0569  -64.8397   -9.6676 H   0  0  0  0  0  0  0  0  0  0  0  0
  -26.4087  -66.1928   -9.7564 H   0  0  0  0  0  0  0  0  0  0  0  0
  -26.2585  -63.5518  -11.7506 H   0  0  0  0  0  0  0  0  0  0  0  0
  -26.4355  -63.3991   -8.8646 H   0  0  0  0  0  0  0  0  0  0  0  0
  -28.2918  -62.2930   -9.8529 H   0  0  0  0  0  0  0  0  0  0  0  0
  -26.9700  -60.5053  -10.1941 H   0  0  0  0  0  0  0  0  0  0  0  0
  -26.2172  -61.2377  -11.6702 H   0  0  0  0  0  0  0  0  0  0  0  0
  -28.5635  -59.6243  -11.4250 H   0  0  0  0  0  0  0  0  0  0  0  0
  -30.0614  -63.6441  -10.7912 H   0  0  0  0  0  0  0  0  0  0  0  0
  -28.7817  -63.7697  -14.1004 H   0  0  0  0  0  0  0  0  0  0  0  0
  -29.9944  -65.1024  -14.3639 H   0  0  0  0  0  0  0  0  0  0  0  0
  -30.7622  -62.2428  -14.7588 H   0  0  0  0  0  0  0  0  0  0  0  0
  -29.8168  -63.2442  -16.0315 H   0  0  0  0  0  0  0  0  0  0  0  0
  -30.9800  -65.6821  -16.1687 H   0  0  0  0  0  0  0  0  0  0  0  0
  -33.0544  -66.6780  -17.1306 H   0  0  0  0  0  0  0  0  0  0  0  0
  -37.3319  -64.1140  -17.5014 H   0  0  0  0  0  0  0  0  0  0  0  0
  -35.8272  -61.8624  -16.5920 H   0  0  0  0  0  0  0  0  0  0  0  0
  -32.9827  -61.9377  -15.5030 H   0  0  0  0  0  0  0  0  0  0  0  0
  1  2  1  0
  2  3  2  0
  2  4  1  0
  5  4  1  0
  5  6  1  0
  5 14  1  0
  6  7  1  0
  6  8  1  0
  8  9  1  0
  8 10  1  0
 10 11  1  0
 10 13  1  0
 11 12  1  0
 13 14  1  0
 14 15  1  0
 15 16  1  0
 16 17  1  0
 17 18  1  0
 18 19  2  0
 18 26  1  0
 19 20  1  0
 20 21  2  0
 21 22  1  0
 21 25  1  0
 22 23  1  0
 23 24  2  0
 24 25  1  0
 25 26  2  0
  1 27  1  0
  1 28  1  0
  1 29  1  0
  4 30  1  0
  5 31  1  6
  6 32  1  1
  7 33  1  0
  8 34  1  6
  9 35  1  0
 10 36  1  1
 11 37  1  0
 11 38  1  0
 12 39  1  0
 14 40  1  1
 16 41  1  0
 16 42  1  0
 17 43  1  0
 17 44  1  0
 19 45  1  0
 20 46  1  0
 23 47  1  0
 24 48  1  0
 26 49  1  0
M  END
>  <filename_input>  (12) 
8GFD_ZHR_docked.sdf

>  <pdb_id>  (12) 
8GFD_ZHR

>  <pose_rank>  (12) 
11

>  <num_atoms_heavy>  (12) 
26

>  <num_torsions>  (12) 
6

>  <pose>  (12) 
[-28.598587772798734, -64.9592065355121, -11.746854418717906, 1.8469771053623956, -1.5436169200266234, -0.9908443220893794, 0.24682317468395187, -0.7419322619626575, 2.5889832970694506, -0.9296177309278307, -0.5225444205433484, 2.718271221801849]

>  <energy>  (12) 
-464.5594173890064

>  <inter_energy>  (12) 
-469.12673128545873

>  <intra_energy>  (12) 
4.723220812149393

>  <rmsd>  (12) 
7.79233

>  <sdf_rank>  (12) 
0

$$$$

     RDKit          3D

 49 51  0  0  0  0  0  0  0  0999 V2000
  -30.4903  -63.8645  -16.6209 C   0  0  0  0  0  0  0  0  0  0  0  0
  -30.2289  -63.6909  -15.1685 C   0  0  0  0  0  0  0  0  0  0  0  0
  -29.9974  -64.6355  -14.4468 O   0  0  0  0  0  0  0  0  0  0  0  0
  -30.2654  -62.4477  -14.6702 N   0  0  0  0  0  0  0  0  0  0  0  0
  -30.0122  -62.0509  -13.3029 C   0  0  2  0  0  0  0  0  0  0  0  0
  -31.2163  -61.3227  -12.7212 C   0  0  1  0  0  0  0  0  0  0  0  0
  -32.3773  -62.1636  -12.7447 O   0  0  0  0  0  0  0  0  0  0  0  0
  -30.8978  -60.8778  -11.2995 C   0  0  2  0  0  0  0  0  0  0  0  0
  -31.9446  -60.0705  -10.7801 O   0  0  0  0  0  0  0  0  0  0  0  0
  -29.6159  -60.0399  -11.2678 C   0  0  1  0  0  0  0  0  0  0  0  0
  -29.1889  -59.7029   -9.8895 C   0  0  0  0  0  0  0  0  0  0  0  0
  -28.0250  -60.4718   -9.4899 O   0  0  0  0  0  0  0  0  0  0  0  0
  -28.5489  -60.8200  -11.8080 O   0  0  0  0  0  0  0  0  0  0  0  0
  -28.7530  -61.1525  -13.1731 C   0  0  1  0  0  0  0  0  0  0  0  0
  -27.6536  -61.8626  -13.6332 O   0  0  0  0  0  0  0  0  0  0  0  0
  -27.2986  -63.0707  -12.9157 C   0  0  0  0  0  0  0  0  0  0  0  0
  -26.2267  -62.8379  -11.8715 C   0  0  0  0  0  0  0  0  0  0  0  0
  -25.8341  -63.9696  -10.9383 C   0  0  0  0  0  0  0  0  0  0  0  0
  -24.5346  -64.4592  -10.9732 C   0  0  0  0  0  0  0  0  0  0  0  0
  -24.0728  -65.4625  -10.1203 C   0  0  0  0  0  0  0  0  0  0  0  0
  -24.9669  -65.9661   -9.2139 C   0  0  0  0  0  0  0  0  0  0  0  0
  -24.7117  -67.0012   -8.3628 O   0  0  0  0  0  0  0  0  0  0  0  0
  -25.8922  -67.1771   -7.5268 C   0  0  0  0  0  0  0  0  0  0  0  0
  -27.0051  -66.3048   -8.0769 C   0  0  0  0  0  0  0  0  0  0  0  0
  -26.2806  -65.5208   -9.1466 C   0  0  0  0  0  0  0  0  0  0  0  0
  -26.7073  -64.4848   -9.9784 C   0  0  0  0  0  0  0  0  0  0  0  0
  -31.3992  -64.4682  -16.7602 H   0  0  0  0  0  0  0  0  0  0  0  0
  -30.6295  -62.8788  -17.0888 H   0  0  0  0  0  0  0  0  0  0  0  0
  -29.6357  -64.3751  -17.0888 H   0  0  0  0  0  0  0  0  0  0  0  0
  -30.4990  -61.6937  -15.3320 H   0  0  0  0  0  0  0  0  0  0  0  0
  -29.8295  -62.9756  -12.7359 H   0  0  0  0  0  0  0  0  0  0  0  0
  -31.4344  -60.4362  -13.3348 H   0  0  0  0  0  0  0  0  0  0  0  0
  -32.6570  -62.3661  -11.8169 H   0  0  0  0  0  0  0  0  0  0  0  0
  -30.7770  -61.7886  -10.6946 H   0  0  0  0  0  0  0  0  0  0  0  0
  -31.9175  -60.0913   -9.7907 H   0  0  0  0  0  0  0  0  0  0  0  0
  -29.8268  -59.1196  -11.8322 H   0  0  0  0  0  0  0  0  0  0  0  0
  -28.9427  -58.6318   -9.8434 H   0  0  0  0  0  0  0  0  0  0  0  0
  -30.0143  -59.9451   -9.2038 H   0  0  0  0  0  0  0  0  0  0  0  0
  -27.9748  -60.5049   -8.5017 H   0  0  0  0  0  0  0  0  0  0  0  0
  -28.8874  -60.2320  -13.7601 H   0  0  0  0  0  0  0  0  0  0  0  0
  -28.1978  -63.4600  -12.4158 H   0  0  0  0  0  0  0  0  0  0  0  0
  -26.8979  -63.7864  -13.6487 H   0  0  0  0  0  0  0  0  0  0  0  0
  -25.3159  -62.5363  -12.4096 H   0  0  0  0  0  0  0  0  0  0  0  0
  -26.6780  -62.0933  -11.1993 H   0  0  0  0  0  0  0  0  0  0  0  0
  -23.8354  -64.0353  -11.7090 H   0  0  0  0  0  0  0  0  0  0  0  0
  -23.0381  -65.8319  -10.1738 H   0  0  0  0  0  0  0  0  0  0  0  0
  -25.9643  -67.8317   -6.6458 H   0  0  0  0  0  0  0  0  0  0  0  0
  -28.0620  -66.2559   -7.7760 H   0  0  0  0  0  0  0  0  0  0  0  0
  -27.7241  -64.0770   -9.8785 H   0  0  0  0  0  0  0  0  0  0  0  0
  1  2  1  0
  2  3  2  0
  2  4  1  0
  5  4  1  0
  5  6  1  0
  5 14  1  0
  6  7  1  0
  6  8  1  0
  8  9  1  0
  8 10  1  0
 10 11  1  0
 10 13  1  0
 11 12  1  0
 13 14  1  0
 14 15  1  0
 15 16  1  0
 16 17  1  0
 17 18  1  0
 18 19  2  0
 18 26  1  0
 19 20  1  0
 20 21  2  0
 21 22  1  0
 21 25  1  0
 22 23  1  0
 23 24  2  0
 24 25  1  0
 25 26  2  0
  1 27  1  0
  1 28  1  0
  1 29  1  0
  4 30  1  0
  5 31  1  1
  6 32  1  6
  7 33  1  0
  8 34  1  1
  9 35  1  0
 10 36  1  6
 11 37  1  0
 11 38  1  0
 12 39  1  0
 14 40  1  6
 16 41  1  0
 16 42  1  0
 17 43  1  0
 17 44  1  0
 19 45  1  0
 20 46  1  0
 23 47  1  0
 24 48  1  0
 26 49  1  0
M  END
>  <filename_input>  (13) 
8GFD_ZHR_docked.sdf

>  <pdb_id>  (13) 
8GFD_ZHR

>  <pose_rank>  (13) 
12

>  <num_atoms_heavy>  (13) 
26

>  <num_torsions>  (13) 
6

>  <pose>  (13) 
[-30.01222376536288, -62.05088573055451, -13.302905131822266, -0.6850583104755734, 1.9700955397192301, -0.7933094236559262, 0.04847739366761142, 4.916980843194489, 2.428907004145436, -0.1733736522773882, -2.310351920559571, -0.6771985377288661]

>  <energy>  (13) 
-571.8028242582866

>  <inter_energy>  (13) 
-557.9675407625984

>  <intra_energy>  (13) 
10.163860204790048

>  <rmsd>  (13) 
6.53726

>  <sdf_rank>  (13) 
0

$$$$

     RDKit          3D

 49 51  0  0  0  0  0  0  0  0999 V2000
  -27.3753  -62.7283  -12.1244 C   0  0  0  0  0  0  0  0  0  0  0  0
  -28.6922  -62.0909  -11.8645 C   0  0  0  0  0  0  0  0  0  0  0  0
  -28.7927  -60.9025  -11.6539 O   0  0  0  0  0  0  0  0  0  0  0  0
  -29.7777  -62.8763  -11.8601 N   0  0  0  0  0  0  0  0  0  0  0  0
  -31.1492  -62.4633  -11.6615 C   0  0  2  0  0  0  0  0  0  0  0  0
  -31.4856  -62.4070  -10.1775 C   0  0  1  0  0  0  0  0  0  0  0  0
  -30.6274  -61.4812   -9.4979 O   0  0  0  0  0  0  0  0  0  0  0  0
  -32.9481  -62.0163  -10.0068 C   0  0  2  0  0  0  0  0  0  0  0  0
  -33.3325  -62.0958   -8.6417 O   0  0  0  0  0  0  0  0  0  0  0  0
  -33.8582  -62.9644  -10.7937 C   0  0  1  0  0  0  0  0  0  0  0  0
  -35.2779  -62.5405  -10.7724 C   0  0  0  0  0  0  0  0  0  0  0  0
  -35.4011  -61.0967  -10.6965 O   0  0  0  0  0  0  0  0  0  0  0  0
  -33.4777  -62.9230  -12.1693 O   0  0  0  0  0  0  0  0  0  0  0  0
  -32.1568  -63.3969  -12.3845 C   0  0  1  0  0  0  0  0  0  0  0  0
  -31.8852  -63.3722  -13.7448 O   0  0  0  0  0  0  0  0  0  0  0  0
  -32.1419  -64.5865  -14.4930 C   0  0  0  0  0  0  0  0  0  0  0  0
  -31.6196  -64.5207  -15.9130 C   0  0  0  0  0  0  0  0  0  0  0  0
  -31.7604  -65.7319  -16.8179 C   0  0  0  0  0  0  0  0  0  0  0  0
  -31.9624  -65.5431  -18.1792 C   0  0  0  0  0  0  0  0  0  0  0  0
  -32.0546  -66.5953  -19.0912 C   0  0  0  0  0  0  0  0  0  0  0  0
  -31.9325  -67.8634  -18.5896 C   0  0  0  0  0  0  0  0  0  0  0  0
  -32.0771  -69.0060  -19.3206 O   0  0  0  0  0  0  0  0  0  0  0  0
  -31.8033  -70.1277  -18.4318 C   0  0  0  0  0  0  0  0  0  0  0  0
  -31.6915  -69.6009  -17.0133 C   0  0  0  0  0  0  0  0  0  0  0  0
  -31.7428  -68.1070  -17.2355 C   0  0  0  0  0  0  0  0  0  0  0  0
  -31.6079  -67.0381  -16.3487 C   0  0  0  0  0  0  0  0  0  0  0  0
  -26.8871  -62.9645  -11.1674 H   0  0  0  0  0  0  0  0  0  0  0  0
  -27.5233  -63.6545  -12.6990 H   0  0  0  0  0  0  0  0  0  0  0  0
  -26.7407  -62.0376  -12.6990 H   0  0  0  0  0  0  0  0  0  0  0  0
  -29.6181  -63.8820  -12.0147 H   0  0  0  0  0  0  0  0  0  0  0  0
  -31.2418  -61.4590  -12.1004 H   0  0  0  0  0  0  0  0  0  0  0  0
  -31.3245  -63.3997   -9.7319 H   0  0  0  0  0  0  0  0  0  0  0  0
  -30.7307  -61.5926   -8.5196 H   0  0  0  0  0  0  0  0  0  0  0  0
  -33.0534  -60.9860  -10.3776 H   0  0  0  0  0  0  0  0  0  0  0  0
  -32.5433  -61.9325   -8.0667 H   0  0  0  0  0  0  0  0  0  0  0  0
  -33.7547  -63.9570  -10.3310 H   0  0  0  0  0  0  0  0  0  0  0  0
  -35.7699  -62.8933  -11.6908 H   0  0  0  0  0  0  0  0  0  0  0  0
  -35.7542  -62.9746   -9.8810 H   0  0  0  0  0  0  0  0  0  0  0  0
  -35.4250  -60.8170   -9.7472 H   0  0  0  0  0  0  0  0  0  0  0  0
  -32.0649  -64.4212  -11.9942 H   0  0  0  0  0  0  0  0  0  0  0  0
  -31.6542  -65.4270  -13.9774 H   0  0  0  0  0  0  0  0  0  0  0  0
  -33.2325  -64.7191  -14.5464 H   0  0  0  0  0  0  0  0  0  0  0  0
  -32.1422  -63.6889  -16.4079 H   0  0  0  0  0  0  0  0  0  0  0  0
  -30.5319  -64.4196  -15.7839 H   0  0  0  0  0  0  0  0  0  0  0  0
  -32.0542  -64.5140  -18.5567 H   0  0  0  0  0  0  0  0  0  0  0  0
  -32.2179  -66.4142  -20.1638 H   0  0  0  0  0  0  0  0  0  0  0  0
  -31.6959  -71.1789  -18.7375 H   0  0  0  0  0  0  0  0  0  0  0  0
  -31.5976  -70.1598  -16.0706 H   0  0  0  0  0  0  0  0  0  0  0  0
  -31.3830  -67.2231  -15.2880 H   0  0  0  0  0  0  0  0  0  0  0  0
  1  2  1  0
  2  3  2  0
  2  4  1  0
  5  4  1  0
  5  6  1  0
  5 14  1  0
  6  7  1  0
  6  8  1  0
  8  9  1  0
  8 10  1  0
 10 11  1  0
 10 13  1  0
 11 12  1  0
 13 14  1  0
 14 15  1  0
 15 16  1  0
 16 17  1  0
 17 18  1  0
 18 19  2  0
 18 26  1  0
 19 20  1  0
 20 21  2  0
 21 22  1  0
 21 25  1  0
 22 23  1  0
 23 24  2  0
 24 25  1  0
 25 26  2  0
  1 27  1  0
  1 28  1  0
  1 29  1  0
  4 30  1  0
  5 31  1  6
  6 32  1  1
  7 33  1  0
  8 34  1  6
  9 35  1  0
 10 36  1  1
 11 37  1  0
 11 38  1  0
 12 39  1  0
 14 40  1  1
 16 41  1  0
 16 42  1  0
 17 43  1  0
 17 44  1  0
 19 45  1  0
 20 46  1  0
 23 47  1  0
 24 48  1  0
 26 49  1  0
M  END
>  <filename_input>  (14) 
8GFD_ZHR_docked.sdf

>  <pdb_id>  (14) 
8GFD_ZHR

>  <pose_rank>  (14) 
13

>  <num_atoms_heavy>  (14) 
26

>  <num_torsions>  (14) 
6

>  <pose>  (14) 
[-31.14919751683045, -62.463326208369615, -11.661500862311687, -3.3382162340164183, -0.6456995086293036, -0.11085695194724937, 0.6748438644529614, -2.6806297636524428, -6.464595527057041, -1.4988002163955678, -2.247561711100019, -0.16825581879767582]

>  <energy>  (14) 
-411.3353496563992

>  <inter_energy>  (14) 
-432.58343302887243

>  <intra_energy>  (14) 
18.81003101846897

>  <rmsd>  (14) 
7.44229

>  <sdf_rank>  (14) 
0

$$$$

     RDKit          3D

 49 51  0  0  0  0  0  0  0  0999 V2000
  -25.7175  -63.4612  -11.3158 C   0  0  0  0  0  0  0  0  0  0  0  0
  -27.1611  -63.3758  -10.9744 C   0  0  0  0  0  0  0  0  0  0  0  0
  -27.5768  -63.6999   -9.8840 O   0  0  0  0  0  0  0  0  0  0  0  0
  -28.0027  -62.9343  -11.9190 N   0  0  0  0  0  0  0  0  0  0  0  0
  -29.4305  -62.7445  -11.7918 C   0  0  2  0  0  0  0  0  0  0  0  0
  -29.7721  -62.1041  -10.4533 C   0  0  1  0  0  0  0  0  0  0  0  0
  -29.1288  -60.8295  -10.3222 O   0  0  0  0  0  0  0  0  0  0  0  0
  -31.2841  -61.9632  -10.3331 C   0  0  2  0  0  0  0  0  0  0  0  0
  -31.6438  -61.5036   -9.0382 O   0  0  0  0  0  0  0  0  0  0  0  0
  -31.9733  -63.3146  -10.5460 C   0  0  1  0  0  0  0  0  0  0  0  0
  -33.4505  -63.2025  -10.5783 C   0  0  0  0  0  0  0  0  0  0  0  0
  -33.9100  -62.5752  -11.8034 O   0  0  0  0  0  0  0  0  0  0  0  0
  -31.6093  -63.8131  -11.8336 O   0  0  0  0  0  0  0  0  0  0  0  0
  -30.2181  -64.0733  -11.9447 C   0  0  1  0  0  0  0  0  0  0  0  0
  -29.9571  -64.6003  -13.2012 O   0  0  0  0  0  0  0  0  0  0  0  0
  -30.6066  -63.9680  -14.3319 C   0  0  0  0  0  0  0  0  0  0  0  0
  -31.8349  -64.7213  -14.7980 C   0  0  0  0  0  0  0  0  0  0  0  0
  -31.7218  -65.6857  -15.9654 C   0  0  0  0  0  0  0  0  0  0  0  0
  -31.6603  -67.0508  -15.7155 C   0  0  0  0  0  0  0  0  0  0  0  0
  -31.6041  -68.0110  -16.7265 C   0  0  0  0  0  0  0  0  0  0  0  0
  -31.6153  -67.5541  -18.0172 C   0  0  0  0  0  0  0  0  0  0  0  0
  -31.4852  -68.3430  -19.1224 O   0  0  0  0  0  0  0  0  0  0  0  0
  -31.6174  -67.4806  -20.2894 C   0  0  0  0  0  0  0  0  0  0  0  0
  -31.6190  -66.0369  -19.8227 C   0  0  0  0  0  0  0  0  0  0  0  0
  -31.6626  -66.1997  -18.3209 C   0  0  0  0  0  0  0  0  0  0  0  0
  -31.7645  -65.2599  -17.2944 C   0  0  0  0  0  0  0  0  0  0  0  0
  -25.1234  -63.4963  -10.3907 H   0  0  0  0  0  0  0  0  0  0  0  0
  -25.5332  -64.3718  -11.9047 H   0  0  0  0  0  0  0  0  0  0  0  0
  -25.4272  -62.5786  -11.9047 H   0  0  0  0  0  0  0  0  0  0  0  0
  -27.5881  -62.7057  -12.8337 H   0  0  0  0  0  0  0  0  0  0  0  0
  -29.7327  -62.0747  -12.6104 H   0  0  0  0  0  0  0  0  0  0  0  0
  -29.4054  -62.7477   -9.6400 H   0  0  0  0  0  0  0  0  0  0  0  0
  -29.0192  -60.6123   -9.3626 H   0  0  0  0  0  0  0  0  0  0  0  0
  -31.6042  -61.2431  -11.1005 H   0  0  0  0  0  0  0  0  0  0  0  0
  -31.2029  -62.0669   -8.3539 H   0  0  0  0  0  0  0  0  0  0  0  0
  -31.6630  -63.9615   -9.7122 H   0  0  0  0  0  0  0  0  0  0  0  0
  -33.8869  -64.2097  -10.5071 H   0  0  0  0  0  0  0  0  0  0  0  0
  -33.7675  -62.5772   -9.7307 H   0  0  0  0  0  0  0  0  0  0  0  0
  -34.4801  -61.7968  -11.5818 H   0  0  0  0  0  0  0  0  0  0  0  0
  -29.9124  -64.7822  -11.1611 H   0  0  0  0  0  0  0  0  0  0  0  0
  -30.9073  -62.9506  -14.0411 H   0  0  0  0  0  0  0  0  0  0  0  0
  -29.8877  -63.9579  -15.1645 H   0  0  0  0  0  0  0  0  0  0  0  0
  -32.2001  -65.3015  -13.9378 H   0  0  0  0  0  0  0  0  0  0  0  0
  -32.4946  -63.9286  -15.1806 H   0  0  0  0  0  0  0  0  0  0  0  0
  -31.6557  -67.3915  -14.6696 H   0  0  0  0  0  0  0  0  0  0  0  0
  -31.5532  -69.0856  -16.4971 H   0  0  0  0  0  0  0  0  0  0  0  0
  -31.7018  -67.8190  -21.3327 H   0  0  0  0  0  0  0  0  0  0  0  0
  -31.5948  -65.1139  -20.4206 H   0  0  0  0  0  0  0  0  0  0  0  0
  -31.8776  -64.1915  -17.5306 H   0  0  0  0  0  0  0  0  0  0  0  0
  1  2  1  0
  2  3  2  0
  2  4  1  0
  5  4  1  0
  5  6  1  0
  5 14  1  0
  6  7  1  0
  6  8  1  0
  8  9  1  0
  8 10  1  0
 10 11  1  0
 10 13  1  0
 11 12  1  0
 13 14  1  0
 14 15  1  0
 15 16  1  0
 16 17  1  0
 17 18  1  0
 18 19  2  0
 18 26  1  0
 19 20  1  0
 20 21  2  0
 21 22  1  0
 21 25  1  0
 22 23  1  0
 23 24  2  0
 24 25  1  0
 25 26  2  0
  1 27  1  0
  1 28  1  0
  1 29  1  0
  4 30  1  0
  5 31  1  6
  6 32  1  1
  7 33  1  0
  8 34  1  6
  9 35  1  0
 10 36  1  1
 11 37  1  0
 11 38  1  0
 12 39  1  0
 14 40  1  1
 16 41  1  0
 16 42  1  0
 17 43  1  0
 17 44  1  0
 19 45  1  0
 20 46  1  0
 23 47  1  0
 24 48  1  0
 26 49  1  0
M  END
>  <filename_input>  (15) 
8GFD_ZHR_docked.sdf

>  <pdb_id>  (15) 
8GFD_ZHR

>  <pose_rank>  (15) 
14

>  <num_atoms_heavy>  (15) 
26

>  <num_torsions>  (15) 
6

>  <pose>  (15) 
[-29.430530247307995, -62.74447099607209, -11.79184481555433, 2.3313648044640964, 0.7643242311386795, -0.05422926042398827, 2.912685168356304, 4.315492050980947, -4.074559762979972, 6.034134077645553, 5.522428127581171, -0.9481690986093074]

>  <energy>  (15) 
-420.14882773471857

>  <inter_energy>  (15) 
-448.70913008514253

>  <intra_energy>  (15) 
32.685609421642766

>  <rmsd>  (15) 
7.44286

>  <sdf_rank>  (15) 
0

$$$$

     RDKit          3D

 49 51  0  0  0  0  0  0  0  0999 V2000
  -36.6348  -65.0947  -16.5942 C   0  0  0  0  0  0  0  0  0  0  0  0
  -35.9451  -65.2803  -15.2912 C   0  0  0  0  0  0  0  0  0  0  0  0
  -35.7062  -66.3824  -14.8496 O   0  0  0  0  0  0  0  0  0  0  0  0
  -35.5984  -64.1831  -14.6046 N   0  0  0  0  0  0  0  0  0  0  0  0
  -34.8974  -64.1333  -13.3409 C   0  0  2  0  0  0  0  0  0  0  0  0
  -35.8143  -63.6275  -12.2355 C   0  0  1  0  0  0  0  0  0  0  0  0
  -36.9548  -64.4843  -12.0911 O   0  0  0  0  0  0  0  0  0  0  0  0
  -35.0318  -63.5421  -10.9312 C   0  0  2  0  0  0  0  0  0  0  0  0
  -35.8170  -62.9374   -9.9138 O   0  0  0  0  0  0  0  0  0  0  0  0
  -33.7746  -62.6850  -11.1082 C   0  0  1  0  0  0  0  0  0  0  0  0
  -32.9084  -62.6883   -9.9060 C   0  0  0  0  0  0  0  0  0  0  0  0
  -31.5496  -63.0808  -10.2301 O   0  0  0  0  0  0  0  0  0  0  0  0
  -32.9759  -63.2573  -12.1443 O   0  0  0  0  0  0  0  0  0  0  0  0
  -33.6271  -63.2435  -13.4058 C   0  0  1  0  0  0  0  0  0  0  0  0
  -32.7687  -63.7669  -14.3618 O   0  0  0  0  0  0  0  0  0  0  0  0
  -31.7474  -62.8837  -14.8886 C   0  0  0  0  0  0  0  0  0  0  0  0
  -30.3445  -63.3967  -14.6393 C   0  0  0  0  0  0  0  0  0  0  0  0
  -29.5284  -62.8163  -13.4979 C   0  0  0  0  0  0  0  0  0  0  0  0
  -28.4029  -63.4975  -13.0523 C   0  0  0  0  0  0  0  0  0  0  0  0
  -27.5677  -63.0159  -12.0434 C   0  0  0  0  0  0  0  0  0  0  0  0
  -27.8983  -61.8090  -11.4880 C   0  0  0  0  0  0  0  0  0  0  0  0
  -27.2438  -61.2296  -10.4406 O   0  0  0  0  0  0  0  0  0  0  0  0
  -27.8641  -59.9324  -10.2050 C   0  0  0  0  0  0  0  0  0  0  0  0
  -29.1181  -59.8379  -11.0538 C   0  0  0  0  0  0  0  0  0  0  0  0
  -29.0198  -61.0942  -11.8880 C   0  0  0  0  0  0  0  0  0  0  0  0
  -29.8146  -61.5731  -12.9302 C   0  0  0  0  0  0  0  0  0  0  0  0
  -37.6832  -64.8125  -16.4172 H   0  0  0  0  0  0  0  0  0  0  0  0
  -36.1325  -64.2997  -17.1649 H   0  0  0  0  0  0  0  0  0  0  0  0
  -36.5993  -66.0343  -17.1649 H   0  0  0  0  0  0  0  0  0  0  0  0
  -35.8592  -63.2782  -15.0218 H   0  0  0  0  0  0  0  0  0  0  0  0
  -34.5799  -65.1623  -13.1166 H   0  0  0  0  0  0  0  0  0  0  0  0
  -36.1819  -62.6252  -12.5003 H   0  0  0  0  0  0  0  0  0  0  0  0
  -37.1421  -64.6251  -11.1292 H   0  0  0  0  0  0  0  0  0  0  0  0
  -34.7600  -64.5699  -10.6488 H   0  0  0  0  0  0  0  0  0  0  0  0
  -35.4698  -63.2048   -9.0262 H   0  0  0  0  0  0  0  0  0  0  0  0
  -34.1180  -61.6621  -11.3220 H   0  0  0  0  0  0  0  0  0  0  0  0
  -32.8947  -61.6774   -9.4727 H   0  0  0  0  0  0  0  0  0  0  0  0
  -33.3160  -63.4164   -9.1892 H   0  0  0  0  0  0  0  0  0  0  0  0
  -31.0403  -63.2279   -9.3940 H   0  0  0  0  0  0  0  0  0  0  0  0
  -33.9055  -62.2114  -13.6651 H   0  0  0  0  0  0  0  0  0  0  0  0
  -31.8968  -62.7810  -15.9735 H   0  0  0  0  0  0  0  0  0  0  0  0
  -31.8446  -61.9181  -14.3708 H   0  0  0  0  0  0  0  0  0  0  0  0
  -30.4270  -64.4782  -14.4561 H   0  0  0  0  0  0  0  0  0  0  0  0
  -29.7916  -63.0842  -15.5374 H   0  0  0  0  0  0  0  0  0  0  0  0
  -28.1579  -64.4638  -13.5174 H   0  0  0  0  0  0  0  0  0  0  0  0
  -26.6843  -63.5801  -11.7098 H   0  0  0  0  0  0  0  0  0  0  0  0
  -27.4870  -59.1532   -9.5263 H   0  0  0  0  0  0  0  0  0  0  0  0
  -29.8950  -59.0592  -11.0603 H   0  0  0  0  0  0  0  0  0  0  0  0
  -30.6603  -60.9758  -13.3017 H   0  0  0  0  0  0  0  0  0  0  0  0
  1  2  1  0
  2  3  2  0
  2  4  1  0
  5  4  1  0
  5  6  1  0
  5 14  1  0
  6  7  1  0
  6  8  1  0
  8  9  1  0
  8 10  1  0
 10 11  1  0
 10 13  1  0
 11 12  1  0
 13 14  1  0
 14 15  1  0
 15 16  1  0
 16 17  1  0
 17 18  1  0
 18 19  2  0
 18 26  1  0
 19 20  1  0
 20 21  2  0
 21 22  1  0
 21 25  1  0
 22 23  1  0
 23 24  2  0
 24 25  1  0
 25 26  2  0
  1 27  1  0
  1 28  1  0
  1 29  1  0
  4 30  1  0
  5 31  1  1
  6 32  1  6
  7 33  1  0
  8 34  1  1
  9 35  1  0
 10 36  1  6
 11 37  1  0
 11 38  1  0
 12 39  1  0
 14 40  1  6
 16 41  1  0
 16 42  1  0
 17 43  1  0
 17 44  1  0
 19 45  1  0
 20 46  1  0
 23 47  1  0
 24 48  1  0
 26 49  1  0
M  END
>  <filename_input>  (16) 
8GFD_ZHR_docked.sdf

>  <pdb_id>  (16) 
8GFD_ZHR

>  <pose_rank>  (16) 
15

>  <num_atoms_heavy>  (16) 
26

>  <num_torsions>  (16) 
6

>  <pose>  (16) 
[-34.89737107895559, -64.13325915695404, -13.340887816212657, 1.0782247267869918, -3.6049366749752734, 0.6649058969171312, 0.2274902648571378, -1.0324655650611765, -18.80736506683084, 41.28604312621093, 36.87645635869693, -6.152696201860773]

>  <energy>  (16) 
-516.5029770263524

>  <inter_energy>  (16) 
-515.2186996347494

>  <intra_energy>  (16) 
0.774795518704077

>  <rmsd>  (16) 
5.25834

>  <sdf_rank>  (16) 
0

$$$$

     RDKit          3D

 49 51  0  0  0  0  0  0  0  0999 V2000
  -31.4125  -59.5074   -9.9583 C   0  0  0  0  0  0  0  0  0  0  0  0
  -31.1656  -60.9183  -10.3535 C   0  0  0  0  0  0  0  0  0  0  0  0
  -32.0742  -61.7047  -10.5038 O   0  0  0  0  0  0  0  0  0  0  0  0
  -29.8953  -61.3050  -10.5325 N   0  0  0  0  0  0  0  0  0  0  0  0
  -29.4338  -62.6120  -10.9447 C   0  0  2  0  0  0  0  0  0  0  0  0
  -28.6600  -63.2893   -9.8218 C   0  0  1  0  0  0  0  0  0  0  0  0
  -29.4841  -63.4423   -8.6586 O   0  0  0  0  0  0  0  0  0  0  0  0
  -28.1487  -64.6403  -10.3055 C   0  0  2  0  0  0  0  0  0  0  0  0
  -27.3012  -65.2336   -9.3324 O   0  0  0  0  0  0  0  0  0  0  0  0
  -27.3289  -64.4817  -11.5897 C   0  0  1  0  0  0  0  0  0  0  0  0
  -26.9291  -65.7829  -12.1753 C   0  0  0  0  0  0  0  0  0  0  0  0
  -28.0230  -66.3969  -12.9045 O   0  0  0  0  0  0  0  0  0  0  0  0
  -28.1505  -63.8640  -12.5807 O   0  0  0  0  0  0  0  0  0  0  0  0
  -28.5484  -62.5503  -12.2182 C   0  0  1  0  0  0  0  0  0  0  0  0
  -29.2965  -62.0047  -13.2512 O   0  0  0  0  0  0  0  0  0  0  0  0
  -29.4039  -62.7794  -14.4713 C   0  0  0  0  0  0  0  0  0  0  0  0
  -30.8035  -63.3070  -14.7085 C   0  0  0  0  0  0  0  0  0  0  0  0
  -31.0498  -64.2904  -15.8390 C   0  0  0  0  0  0  0  0  0  0  0  0
  -30.9228  -65.6520  -15.5950 C   0  0  0  0  0  0  0  0  0  0  0  0
  -31.1766  -66.6281  -16.5594 C   0  0  0  0  0  0  0  0  0  0  0  0
  -31.5716  -66.1910  -17.7953 C   0  0  0  0  0  0  0  0  0  0  0  0
  -31.7822  -66.9981  -18.8747 O   0  0  0  0  0  0  0  0  0  0  0  0
  -32.2537  -66.1525  -19.9637 C   0  0  0  0  0  0  0  0  0  0  0  0
  -32.1086  -64.7019  -19.5434 C   0  0  0  0  0  0  0  0  0  0  0  0
  -31.7012  -64.8411  -18.0947 C   0  0  0  0  0  0  0  0  0  0  0  0
  -31.4865  -63.8846  -17.1016 C   0  0  0  0  0  0  0  0  0  0  0  0
  -31.4259  -59.4309   -8.8610 H   0  0  0  0  0  0  0  0  0  0  0  0
  -30.6125  -58.8685  -10.3606 H   0  0  0  0  0  0  0  0  0  0  0  0
  -32.3819  -59.1782  -10.3606 H   0  0  0  0  0  0  0  0  0  0  0  0
  -29.1696  -60.5953  -10.3577 H   0  0  0  0  0  0  0  0  0  0  0  0
  -30.3314  -63.2014  -11.1836 H   0  0  0  0  0  0  0  0  0  0  0  0
  -27.8024  -62.6597   -9.5422 H   0  0  0  0  0  0  0  0  0  0  0  0
  -28.9293  -63.3393   -7.8452 H   0  0  0  0  0  0  0  0  0  0  0  0
  -29.0295  -65.2736  -10.4873 H   0  0  0  0  0  0  0  0  0  0  0  0
  -27.6282  -65.0047   -8.4264 H   0  0  0  0  0  0  0  0  0  0  0  0
  -26.4352  -63.8984  -11.3231 H   0  0  0  0  0  0  0  0  0  0  0  0
  -26.0868  -65.6211  -12.8640 H   0  0  0  0  0  0  0  0  0  0  0  0
  -26.6406  -66.4563  -11.3548 H   0  0  0  0  0  0  0  0  0  0  0  0
  -28.6808  -66.7661  -12.2634 H   0  0  0  0  0  0  0  0  0  0  0  0
  -27.6568  -61.9357  -12.0250 H   0  0  0  0  0  0  0  0  0  0  0  0
  -29.1205  -62.1398  -15.3202 H   0  0  0  0  0  0  0  0  0  0  0  0
  -28.7345  -63.6468  -14.3735 H   0  0  0  0  0  0  0  0  0  0  0  0
  -31.1207  -63.8022  -13.7789 H   0  0  0  0  0  0  0  0  0  0  0  0
  -31.3679  -62.4140  -15.0151 H   0  0  0  0  0  0  0  0  0  0  0  0
  -30.6068  -65.9766  -14.5926 H   0  0  0  0  0  0  0  0  0  0  0  0
  -31.0644  -67.6995  -16.3368 H   0  0  0  0  0  0  0  0  0  0  0  0
  -32.6483  -66.5061  -20.9277 H   0  0  0  0  0  0  0  0  0  0  0  0
  -32.2601  -63.7884  -20.1372 H   0  0  0  0  0  0  0  0  0  0  0  0
  -31.6601  -62.8190  -17.3119 H   0  0  0  0  0  0  0  0  0  0  0  0
  1  2  1  0
  2  3  2  0
  2  4  1  0
  5  4  1  0
  5  6  1  0
  5 14  1  0
  6  7  1  0
  6  8  1  0
  8  9  1  0
  8 10  1  0
 10 11  1  0
 10 13  1  0
 11 12  1  0
 13 14  1  0
 14 15  1  0
 15 16  1  0
 16 17  1  0
 17 18  1  0
 18 19  2  0
 18 26  1  0
 19 20  1  0
 20 21  2  0
 21 22  1  0
 21 25  1  0
 22 23  1  0
 23 24  2  0
 24 25  1  0
 25 26  2  0
  1 27  1  0
  1 28  1  0
  1 29  1  0
  4 30  1  0
  5 31  1  6
  6 32  1  1
  7 33  1  0
  8 34  1  6
  9 35  1  0
 10 36  1  1
 11 37  1  0
 11 38  1  0
 12 39  1  0
 14 40  1  1
 16 41  1  0
 16 42  1  0
 17 43  1  0
 17 44  1  0
 19 45  1  0
 20 46  1  0
 23 47  1  0
 24 48  1  0
 26 49  1  0
M  END
>  <filename_input>  (17) 
8GFD_ZHR_docked.sdf

>  <pdb_id>  (17) 
8GFD_ZHR

>  <pose_rank>  (17) 
16

>  <num_atoms_heavy>  (17) 
26

>  <num_torsions>  (17) 
6

>  <pose>  (17) 
[-29.433842076604883, -62.61200108662643, -10.944701919006697, 1.049277398785411, 3.3600557989427675, 0.7395085455028446, 0.1933015108645811, -1.8526537832111836, 1.343103091294004, -2.844623970979886, -2.0657108498593995, -1.171049157842849]

>  <energy>  (17) 
-518.2287497840967

>  <inter_energy>  (17) 
-514.086299756833

>  <intra_energy>  (17) 
1.1848717740573824

>  <rmsd>  (17) 
7.88537

>  <sdf_rank>  (17) 
0

$$$$

     RDKit          3D

 49 51  0  0  0  0  0  0  0  0999 V2000
  -31.0356  -64.0068  -15.0304 C   0  0  0  0  0  0  0  0  0  0  0  0
  -29.6726  -63.7012  -14.5237 C   0  0  0  0  0  0  0  0  0  0  0  0
  -28.8334  -63.1851  -15.2280 O   0  0  0  0  0  0  0  0  0  0  0  0
  -29.3898  -64.0240  -13.2544 N   0  0  0  0  0  0  0  0  0  0  0  0
  -28.1468  -63.7898  -12.5537 C   0  0  2  0  0  0  0  0  0  0  0  0
  -27.7754  -64.9933  -11.6980 C   0  0  1  0  0  0  0  0  0  0  0  0
  -27.6278  -66.1661  -12.5094 O   0  0  0  0  0  0  0  0  0  0  0  0
  -26.4892  -64.6941  -10.9385 C   0  0  2  0  0  0  0  0  0  0  0  0
  -26.1934  -65.7380  -10.0219 O   0  0  0  0  0  0  0  0  0  0  0  0
  -26.6255  -63.4006  -10.1293 C   0  0  1  0  0  0  0  0  0  0  0  0
  -25.3542  -62.9937   -9.4860 C   0  0  0  0  0  0  0  0  0  0  0  0
  -24.6630  -61.9834  -10.2650 O   0  0  0  0  0  0  0  0  0  0  0  0
  -26.9475  -62.3357  -11.0245 O   0  0  0  0  0  0  0  0  0  0  0  0
  -28.2022  -62.5199  -11.6627 C   0  0  1  0  0  0  0  0  0  0  0  0
  -28.4618  -61.4230  -12.4715 O   0  0  0  0  0  0  0  0  0  0  0  0
  -29.4973  -60.5084  -12.0338 C   0  0  0  0  0  0  0  0  0  0  0  0
  -30.8513  -60.8273  -12.6325 C   0  0  0  0  0  0  0  0  0  0  0  0
  -32.0368  -61.0665  -11.7143 C   0  0  0  0  0  0  0  0  0  0  0  0
  -33.0011  -61.9978  -12.0783 C   0  0  0  0  0  0  0  0  0  0  0  0
  -34.0968  -62.3169  -11.2753 C   0  0  0  0  0  0  0  0  0  0  0  0
  -34.1966  -61.6661  -10.0748 C   0  0  0  0  0  0  0  0  0  0  0  0
  -35.2397  -61.7942   -9.2052 O   0  0  0  0  0  0  0  0  0  0  0  0
  -34.9258  -60.9927   -8.0295 C   0  0  0  0  0  0  0  0  0  0  0  0
  -33.6897  -60.1650   -8.3279 C   0  0  0  0  0  0  0  0  0  0  0  0
  -33.2670  -60.7171   -9.6697 C   0  0  0  0  0  0  0  0  0  0  0  0
  -32.1548  -60.4476  -10.4683 C   0  0  0  0  0  0  0  0  0  0  0  0
  -31.7171  -64.1595  -14.1805 H   0  0  0  0  0  0  0  0  0  0  0  0
  -31.3959  -63.1671  -15.6429 H   0  0  0  0  0  0  0  0  0  0  0  0
  -31.0029  -64.9199  -15.6429 H   0  0  0  0  0  0  0  0  0  0  0  0
  -30.1381  -64.4887  -12.7205 H   0  0  0  0  0  0  0  0  0  0  0  0
  -27.3771  -63.6312  -13.3233 H   0  0  0  0  0  0  0  0  0  0  0  0
  -28.5823  -65.1869  -10.9759 H   0  0  0  0  0  0  0  0  0  0  0  0
  -27.5279  -66.9601  -11.9266 H   0  0  0  0  0  0  0  0  0  0  0  0
  -25.6872  -64.5979  -11.6852 H   0  0  0  0  0  0  0  0  0  0  0  0
  -26.2889  -65.4010   -9.0960 H   0  0  0  0  0  0  0  0  0  0  0  0
  -27.3923  -63.5875   -9.3631 H   0  0  0  0  0  0  0  0  0  0  0  0
  -25.5730  -62.5874   -8.4875 H   0  0  0  0  0  0  0  0  0  0  0  0
  -24.7048  -63.8788   -9.4153 H   0  0  0  0  0  0  0  0  0  0  0  0
  -24.2229  -61.3400   -9.6546 H   0  0  0  0  0  0  0  0  0  0  0  0
  -28.9894  -62.6298  -10.9023 H   0  0  0  0  0  0  0  0  0  0  0  0
  -29.5754  -60.5638  -10.9380 H   0  0  0  0  0  0  0  0  0  0  0  0
  -29.2143  -59.5005  -12.3716 H   0  0  0  0  0  0  0  0  0  0  0  0
  -31.1184  -59.9845  -13.2870 H   0  0  0  0  0  0  0  0  0  0  0  0
  -30.6971  -61.8037  -13.1152 H   0  0  0  0  0  0  0  0  0  0  0  0
  -32.8958  -62.5087  -13.0467 H   0  0  0  0  0  0  0  0  0  0  0  0
  -34.8461  -63.0573  -11.5922 H   0  0  0  0  0  0  0  0  0  0  0  0
  -35.4898  -60.9884   -7.0851 H   0  0  0  0  0  0  0  0  0  0  0  0
  -33.2235  -59.3713   -7.7257 H   0  0  0  0  0  0  0  0  0  0  0  0
  -31.3770  -59.7528  -10.1189 H   0  0  0  0  0  0  0  0  0  0  0  0
  1  2  1  0
  2  3  2  0
  2  4  1  0
  5  4  1  0
  5  6  1  0
  5 14  1  0
  6  7  1  0
  6  8  1  0
  8  9  1  0
  8 10  1  0
 10 11  1  0
 10 13  1  0
 11 12  1  0
 13 14  1  0
 14 15  1  0
 15 16  1  0
 16 17  1  0
 17 18  1  0
 18 19  2  0
 18 26  1  0
 19 20  1  0
 20 21  2  0
 21 22  1  0
 21 25  1  0
 22 23  1  0
 23 24  2  0
 24 25  1  0
 25 26  2  0
  1 27  1  0
  1 28  1  0
  1 29  1  0
  4 30  1  0
  5 31  1  6
  6 32  1  1
  7 33  1  0
  8 34  1  6
  9 35  1  0
 10 36  1  1
 11 37  1  0
 11 38  1  0
 12 39  1  0
 14 40  1  1
 16 41  1  0
 16 42  1  0
 17 43  1  0
 17 44  1  0
 19 45  1  0
 20 46  1  0
 23 47  1  0
 24 48  1  0
 26 49  1  0
M  END
>  <filename_input>  (18) 
8GFD_ZHR_docked.sdf

>  <pdb_id>  (18) 
8GFD_ZHR

>  <pose_rank>  (18) 
17

>  <num_atoms_heavy>  (18) 
26

>  <num_torsions>  (18) 
6

>  <pose>  (18) 
[-28.14678508210069, -63.78977453111781, -12.553659144922463, 1.9309792097825975, -2.2668994927244253, -1.9121266432605175, -0.24527003832497998, -1.5155155488086713, -0.4492392329823854, -0.14607771695810684, 3.1007628715480164, -5.264023121308126]

>  <energy>  (18) 
-515.8669383516475

>  <inter_energy>  (18) 
-511.440415266896

>  <intra_energy>  (18) 
4.418158827066956

>  <rmsd>  (18) 
6.77678

>  <sdf_rank>  (18) 
0

$$$$

     RDKit          3D

 49 51  0  0  0  0  0  0  0  0999 V2000
  -27.0384  -65.9199  -13.4327 C   0  0  0  0  0  0  0  0  0  0  0  0
  -27.9768  -64.8993  -12.8982 C   0  0  0  0  0  0  0  0  0  0  0  0
  -28.6627  -65.1148  -11.9236 O   0  0  0  0  0  0  0  0  0  0  0  0
  -28.0521  -63.7233  -13.5359 N   0  0  0  0  0  0  0  0  0  0  0  0
  -28.8688  -62.5870  -13.1715 C   0  0  2  0  0  0  0  0  0  0  0  0
  -28.4664  -62.0502  -11.8046 C   0  0  1  0  0  0  0  0  0  0  0  0
  -27.0917  -61.6428  -11.8046 O   0  0  0  0  0  0  0  0  0  0  0  0
  -29.3765  -60.8869  -11.4320 C   0  0  2  0  0  0  0  0  0  0  0  0
  -29.1226  -60.4572  -10.1023 O   0  0  0  0  0  0  0  0  0  0  0  0
  -30.8484  -61.3053  -11.5037 C   0  0  1  0  0  0  0  0  0  0  0  0
  -31.7752  -60.1698  -11.2868 C   0  0  0  0  0  0  0  0  0  0  0  0
  -33.1333  -60.6272  -11.0593 O   0  0  0  0  0  0  0  0  0  0  0  0
  -31.1266  -61.7658  -12.8263 O   0  0  0  0  0  0  0  0  0  0  0  0
  -30.3835  -62.9264  -13.1676 C   0  0  1  0  0  0  0  0  0  0  0  0
  -30.7483  -63.3365  -14.4418 O   0  0  0  0  0  0  0  0  0  0  0  0
  -32.0926  -63.0185  -14.8798 C   0  0  0  0  0  0  0  0  0  0  0  0
  -32.4384  -63.6484  -16.2129 C   0  0  0  0  0  0  0  0  0  0  0  0
  -33.8595  -64.1161  -16.4723 C   0  0  0  0  0  0  0  0  0  0  0  0
  -34.2747  -64.3356  -17.7796 C   0  0  0  0  0  0  0  0  0  0  0  0
  -35.5448  -64.8110  -18.1084 C   0  0  0  0  0  0  0  0  0  0  0  0
  -36.3992  -65.0676  -17.0697 C   0  0  0  0  0  0  0  0  0  0  0  0
  -37.6988  -65.4576  -17.2101 O   0  0  0  0  0  0  0  0  0  0  0  0
  -38.2297  -65.6885  -15.8730 C   0  0  0  0  0  0  0  0  0  0  0  0
  -37.2145  -65.1925  -14.8604 C   0  0  0  0  0  0  0  0  0  0  0  0
  -36.0380  -64.8527  -15.7460 C   0  0  0  0  0  0  0  0  0  0  0  0
  -34.7474  -64.4205  -15.4385 C   0  0  0  0  0  0  0  0  0  0  0  0
  -26.5543  -66.4463  -12.5969 H   0  0  0  0  0  0  0  0  0  0  0  0
  -27.5942  -66.6423  -14.0484 H   0  0  0  0  0  0  0  0  0  0  0  0
  -26.2719  -65.4265  -14.0484 H   0  0  0  0  0  0  0  0  0  0  0  0
  -27.4653  -63.6173  -14.3758 H   0  0  0  0  0  0  0  0  0  0  0  0
  -28.6955  -61.8167  -13.9374 H   0  0  0  0  0  0  0  0  0  0  0  0
  -28.5776  -62.8478  -11.0554 H   0  0  0  0  0  0  0  0  0  0  0  0
  -26.7753  -61.5490  -10.8712 H   0  0  0  0  0  0  0  0  0  0  0  0
  -29.1725  -60.0747  -12.1453 H   0  0  0  0  0  0  0  0  0  0  0  0
  -29.5082  -61.1096   -9.4653 H   0  0  0  0  0  0  0  0  0  0  0  0
  -30.9977  -62.0674  -10.7245 H   0  0  0  0  0  0  0  0  0  0  0  0
  -31.4395  -59.5970  -10.4098 H   0  0  0  0  0  0  0  0  0  0  0  0
  -31.7694  -59.5424  -12.1903 H   0  0  0  0  0  0  0  0  0  0  0  0
  -33.3035  -60.6845  -10.0857 H   0  0  0  0  0  0  0  0  0  0  0  0
  -30.5872  -63.7223  -12.4362 H   0  0  0  0  0  0  0  0  0  0  0  0
  -32.8042  -63.3823  -14.1239 H   0  0  0  0  0  0  0  0  0  0  0  0
  -32.1520  -61.9271  -15.0031 H   0  0  0  0  0  0  0  0  0  0  0  0
  -32.1990  -62.9066  -16.9890 H   0  0  0  0  0  0  0  0  0  0  0  0
  -31.8545  -64.5806  -16.2176 H   0  0  0  0  0  0  0  0  0  0  0  0
  -33.5678  -64.1243  -18.5955 H   0  0  0  0  0  0  0  0  0  0  0  0
  -35.8457  -64.9723  -19.1541 H   0  0  0  0  0  0  0  0  0  0  0  0
  -39.2022  -66.1453  -15.6374 H   0  0  0  0  0  0  0  0  0  0  0  0
  -37.3098  -65.1036  -13.7681 H   0  0  0  0  0  0  0  0  0  0  0  0
  -34.4318  -64.3203  -14.3896 H   0  0  0  0  0  0  0  0  0  0  0  0
  1  2  1  0
  2  3  2  0
  2  4  1  0
  5  4  1  0
  5  6  1  0
  5 14  1  0
  6  7  1  0
  6  8  1  0
  8  9  1  0
  8 10  1  0
 10 11  1  0
 10 13  1  0
 11 12  1  0
 13 14  1  0
 14 15  1  0
 15 16  1  0
 16 17  1  0
 17 18  1  0
 18 19  2  0
 18 26  1  0
 19 20  1  0
 20 21  2  0
 21 22  1  0
 21 25  1  0
 22 23  1  0
 23 24  2  0
 24 25  1  0
 25 26  2  0
  1 27  1  0
  1 28  1  0
  1 29  1  0
  4 30  1  0
  5 31  1  6
  6 32  1  1
  7 33  1  0
  8 34  1  6
  9 35  1  0
 10 36  1  1
 11 37  1  0
 11 38  1  0
 12 39  1  0
 14 40  1  1
 16 41  1  0
 16 42  1  0
 17 43  1  0
 17 44  1  0
 19 45  1  0
 20 46  1  0
 23 47  1  0
 24 48  1  0
 26 49  1  0
M  END
>  <filename_input>  (19) 
8GFD_ZHR_docked.sdf

>  <pdb_id>  (19) 
8GFD_ZHR

>  <pose_rank>  (19) 
18

>  <num_atoms_heavy>  (19) 
26

>  <num_torsions>  (19) 
6

>  <pose>  (19) 
[-28.86881540902743, -62.58699707523876, -13.171518156478278, -3.555383592267197, 0.2040469644207404, 0.8166833255277934, 3.2654792689925163, -6.1437205288988235, 0.9480370397759704, -20.38303820609542, 3.473925438467834, 0.09859527309669115]

>  <energy>  (19) 
-548.2492723179404

>  <inter_energy>  (19) 
-548.2742314510526

>  <intra_energy>  (19) 
17.633024352913377

>  <rmsd>  (19) 
7.37283

>  <sdf_rank>  (19) 
0

$$$$

     RDKit          3D

 49 51  0  0  0  0  0  0  0  0999 V2000
  -31.8113  -66.9364   -8.8237 C   0  0  0  0  0  0  0  0  0  0  0  0
  -30.9428  -66.0760   -9.6683 C   0  0  0  0  0  0  0  0  0  0  0  0
  -30.1944  -66.5462  -10.4962 O   0  0  0  0  0  0  0  0  0  0  0  0
  -31.0033  -64.7506   -9.4814 N   0  0  0  0  0  0  0  0  0  0  0  0
  -30.2744  -63.7355  -10.2089 C   0  0  2  0  0  0  0  0  0  0  0  0
  -29.2089  -63.1000   -9.3260 C   0  0  1  0  0  0  0  0  0  0  0  0
  -28.2778  -64.0877   -8.8644 O   0  0  0  0  0  0  0  0  0  0  0  0
  -28.4944  -62.0047  -10.1073 C   0  0  2  0  0  0  0  0  0  0  0  0
  -27.5948  -61.2951   -9.2680 O   0  0  0  0  0  0  0  0  0  0  0  0
  -29.4994  -60.9900  -10.6612 C   0  0  1  0  0  0  0  0  0  0  0  0
  -28.8657  -59.9845  -11.5460 C   0  0  0  0  0  0  0  0  0  0  0  0
  -29.0280  -60.3298  -12.9459 O   0  0  0  0  0  0  0  0  0  0  0  0
  -30.4331  -61.6811  -11.4915 O   0  0  0  0  0  0  0  0  0  0  0  0
  -31.2065  -62.6290  -10.7712 C   0  0  1  0  0  0  0  0  0  0  0  0
  -32.1190  -63.2163  -11.6356 O   0  0  0  0  0  0  0  0  0  0  0  0
  -32.1356  -62.7395  -13.0041 C   0  0  0  0  0  0  0  0  0  0  0  0
  -33.1549  -63.4592  -13.8624 C   0  0  0  0  0  0  0  0  0  0  0  0
  -32.6886  -64.2485  -15.0728 C   0  0  0  0  0  0  0  0  0  0  0  0
  -31.9881  -65.4329  -14.8829 C   0  0  0  0  0  0  0  0  0  0  0  0
  -31.5636  -66.2466  -15.9341 C   0  0  0  0  0  0  0  0  0  0  0  0
  -31.8709  -65.8322  -17.2024 C   0  0  0  0  0  0  0  0  0  0  0  0
  -31.4663  -66.4589  -18.3445 O   0  0  0  0  0  0  0  0  0  0  0  0
  -32.0593  -65.7424  -19.4662 C   0  0  0  0  0  0  0  0  0  0  0  0
  -32.6949  -64.4687  -18.9411 C   0  0  0  0  0  0  0  0  0  0  0  0
  -32.5575  -64.6501  -17.4471 C   0  0  0  0  0  0  0  0  0  0  0  0
  -33.0120  -63.8758  -16.3789 C   0  0  0  0  0  0  0  0  0  0  0  0
  -31.6068  -66.7339   -7.7620 H   0  0  0  0  0  0  0  0  0  0  0  0
  -32.8671  -66.7182   -9.0419 H   0  0  0  0  0  0  0  0  0  0  0  0
  -31.6028  -67.9942   -9.0419 H   0  0  0  0  0  0  0  0  0  0  0  0
  -31.6369  -64.4193   -8.7400 H   0  0  0  0  0  0  0  0  0  0  0  0
  -29.7960  -64.2414  -11.0604 H   0  0  0  0  0  0  0  0  0  0  0  0
  -29.6892  -62.6558   -8.4418 H   0  0  0  0  0  0  0  0  0  0  0  0
  -28.2696  -64.0964   -7.8744 H   0  0  0  0  0  0  0  0  0  0  0  0
  -27.9506  -62.4948  -10.9283 H   0  0  0  0  0  0  0  0  0  0  0  0
  -27.8189  -61.4719   -8.3200 H   0  0  0  0  0  0  0  0  0  0  0  0
  -29.9563  -60.4927   -9.7928 H   0  0  0  0  0  0  0  0  0  0  0  0
  -29.3304  -59.0043  -11.3635 H   0  0  0  0  0  0  0  0  0  0  0  0
  -27.7894  -59.9560  -11.3203 H   0  0  0  0  0  0  0  0  0  0  0  0
  -29.4480  -61.2233  -13.0189 H   0  0  0  0  0  0  0  0  0  0  0  0
  -31.7306  -62.1254   -9.9455 H   0  0  0  0  0  0  0  0  0  0  0  0
  -32.3748  -61.6659  -12.9996 H   0  0  0  0  0  0  0  0  0  0  0  0
  -31.1424  -62.9338  -13.4352 H   0  0  0  0  0  0  0  0  0  0  0  0
  -33.6857  -64.1641  -13.2056 H   0  0  0  0  0  0  0  0  0  0  0  0
  -33.7479  -62.6422  -14.2993 H   0  0  0  0  0  0  0  0  0  0  0  0
  -31.7566  -65.7446  -13.8537 H   0  0  0  0  0  0  0  0  0  0  0  0
  -31.0077  -67.1782  -15.7521 H   0  0  0  0  0  0  0  0  0  0  0  0
  -32.0480  -66.0696  -20.5164 H   0  0  0  0  0  0  0  0  0  0  0  0
  -33.1392  -63.6325  -19.5010 H   0  0  0  0  0  0  0  0  0  0  0  0
  -33.6205  -62.9784  -16.5645 H   0  0  0  0  0  0  0  0  0  0  0  0
  1  2  1  0
  2  3  2  0
  2  4  1  0
  5  4  1  0
  5  6  1  0
  5 14  1  0
  6  7  1  0
  6  8  1  0
  8  9  1  0
  8 10  1  0
 10 11  1  0
 10 13  1  0
 11 12  1  0
 13 14  1  0
 14 15  1  0
 15 16  1  0
 16 17  1  0
 17 18  1  0
 18 19  2  0
 18 26  1  0
 19 20  1  0
 20 21  2  0
 21 22  1  0
 21 25  1  0
 22 23  1  0
 23 24  2  0
 24 25  1  0
 25 26  2  0
  1 27  1  0
  1 28  1  0
  1 29  1  0
  4 30  1  0
  5 31  1  6
  6 32  1  1
  7 33  1  0
  8 34  1  6
  9 35  1  0
 10 36  1  1
 11 37  1  0
 11 38  1  0
 12 39  1  0
 14 40  1  1
 16 41  1  0
 16 42  1  0
 17 43  1  0
 17 44  1  0
 19 45  1  0
 20 46  1  0
 23 47  1  0
 24 48  1  0
 26 49  1  0
M  END
>  <filename_input>  (20) 
8GFD_ZHR_docked.sdf

>  <pdb_id>  (20) 
8GFD_ZHR

>  <pose_rank>  (20) 
19

>  <num_atoms_heavy>  (20) 
26

>  <num_torsions>  (20) 
6

>  <pose>  (20) 
[-30.27435824596218, -63.7354871211387, -10.208881527953412, -2.6669273255216437, 2.852540932197782, 1.0073190571941442, 0.26463834645953505, -1.5124845177283701, 1.4049156472505533, 29.753501962845345, 17.708186804399443, -1.4951991153539324]

>  <energy>  (20) 
-466.77740757497384

>  <inter_energy>  (20) 
-458.62522641830566

>  <intra_energy>  (20) 
0.9636233546823192

>  <rmsd>  (20) 
7.61558

>  <sdf_rank>  (20) 
0

$$$$

     RDKit          3D

 49 51  0  0  0  0  0  0  0  0999 V2000
  -32.2408  -64.7009  -18.3121 C   0  0  0  0  0  0  0  0  0  0  0  0
  -33.2305  -64.9048  -17.2227 C   0  0  0  0  0  0  0  0  0  0  0  0
  -34.4227  -64.8472  -17.4278 O   0  0  0  0  0  0  0  0  0  0  0  0
  -32.7637  -65.1480  -15.9905 N   0  0  0  0  0  0  0  0  0  0  0  0
  -33.5434  -65.4050  -14.8001 C   0  0  2  0  0  0  0  0  0  0  0  0
  -34.5555  -66.5153  -15.0480 C   0  0  1  0  0  0  0  0  0  0  0  0
  -33.8939  -67.7282  -15.4309 O   0  0  0  0  0  0  0  0  0  0  0  0
  -35.3900  -66.7264  -13.7912 C   0  0  2  0  0  0  0  0  0  0  0  0
  -36.4382  -67.6534  -14.0349 O   0  0  0  0  0  0  0  0  0  0  0  0
  -36.0373  -65.4124  -13.3430 C   0  0  1  0  0  0  0  0  0  0  0  0
  -36.7438  -65.5379  -12.0466 C   0  0  0  0  0  0  0  0  0  0  0  0
  -35.8926  -66.1303  -11.0317 O   0  0  0  0  0  0  0  0  0  0  0  0
  -35.0057  -64.4521  -13.1136 O   0  0  0  0  0  0  0  0  0  0  0  0
  -34.2814  -64.1370  -14.2933 C   0  0  1  0  0  0  0  0  0  0  0  0
  -33.3375  -63.1647  -13.9963 O   0  0  0  0  0  0  0  0  0  0  0  0
  -33.3868  -62.5768  -12.6726 C   0  0  0  0  0  0  0  0  0  0  0  0
  -32.7557  -61.2012  -12.6190 C   0  0  0  0  0  0  0  0  0  0  0  0
  -31.5134  -60.9814  -11.7740 C   0  0  0  0  0  0  0  0  0  0  0  0
  -31.5302  -60.0102  -10.7809 C   0  0  0  0  0  0  0  0  0  0  0  0
  -30.4531  -59.7726   -9.9262 C   0  0  0  0  0  0  0  0  0  0  0  0
  -29.3414  -60.5533  -10.0973 C   0  0  0  0  0  0  0  0  0  0  0  0
  -28.1735  -60.4050   -9.4083 O   0  0  0  0  0  0  0  0  0  0  0  0
  -27.2769  -61.4697   -9.8392 C   0  0  0  0  0  0  0  0  0  0  0  0
  -27.9025  -62.1728  -11.0292 C   0  0  0  0  0  0  0  0  0  0  0  0
  -29.2685  -61.5287  -11.0833 C   0  0  0  0  0  0  0  0  0  0  0  0
  -30.3744  -61.7797  -11.8964 C   0  0  0  0  0  0  0  0  0  0  0  0
  -31.2519  -64.4971  -17.8757 H   0  0  0  0  0  0  0  0  0  0  0  0
  -32.1877  -65.6070  -18.9336 H   0  0  0  0  0  0  0  0  0  0  0  0
  -32.5503  -63.8476  -18.9336 H   0  0  0  0  0  0  0  0  0  0  0  0
  -31.7397  -65.1522  -15.8793 H   0  0  0  0  0  0  0  0  0  0  0  0
  -32.8332  -65.7187  -14.0208 H   0  0  0  0  0  0  0  0  0  0  0  0
  -35.2190  -66.2222  -15.8750 H   0  0  0  0  0  0  0  0  0  0  0  0
  -33.6222  -68.2262  -14.6195 H   0  0  0  0  0  0  0  0  0  0  0  0
  -34.7124  -67.1065  -13.0126 H   0  0  0  0  0  0  0  0  0  0  0  0
  -36.8017  -67.9748  -13.1720 H   0  0  0  0  0  0  0  0  0  0  0  0
  -36.7474  -65.1254  -14.1325 H   0  0  0  0  0  0  0  0  0  0  0  0
  -37.0563  -64.5378  -11.7116 H   0  0  0  0  0  0  0  0  0  0  0  0
  -37.6156  -66.1930  -12.1909 H   0  0  0  0  0  0  0  0  0  0  0  0
  -36.2348  -65.8921  -10.1338 H   0  0  0  0  0  0  0  0  0  0  0  0
  -34.9755  -63.7737  -15.0655 H   0  0  0  0  0  0  0  0  0  0  0  0
  -34.4393  -62.4932  -12.3639 H   0  0  0  0  0  0  0  0  0  0  0  0
  -32.8151  -63.2307  -11.9976 H   0  0  0  0  0  0  0  0  0  0  0  0
  -32.4924  -60.9294  -13.6518 H   0  0  0  0  0  0  0  0  0  0  0  0
  -33.5193  -60.5857  -12.1210 H   0  0  0  0  0  0  0  0  0  0  0  0
  -32.4368  -59.3987  -10.6625 H   0  0  0  0  0  0  0  0  0  0  0  0
  -30.4952  -58.9938   -9.1504 H   0  0  0  0  0  0  0  0  0  0  0  0
  -26.3098  -61.7212   -9.3794 H   0  0  0  0  0  0  0  0  0  0  0  0
  -27.4742  -62.9481  -11.6815 H   0  0  0  0  0  0  0  0  0  0  0  0
  -30.3491  -62.6004  -12.6284 H   0  0  0  0  0  0  0  0  0  0  0  0
  1  2  1  0
  2  3  2  0
  2  4  1  0
  5  4  1  0
  5  6  1  0
  5 14  1  0
  6  7  1  0
  6  8  1  0
  8  9  1  0
  8 10  1  0
 10 11  1  0
 10 13  1  0
 11 12  1  0
 13 14  1  0
 14 15  1  0
 15 16  1  0
 16 17  1  0
 17 18  1  0
 18 19  2  0
 18 26  1  0
 19 20  1  0
 20 21  2  0
 21 22  1  0
 21 25  1  0
 22 23  1  0
 23 24  2  0
 24 25  1  0
 25 26  2  0
  1 27  1  0
  1 28  1  0
  1 29  1  0
  4 30  1  0
  5 31  1  1
  6 32  1  6
  7 33  1  0
  8 34  1  1
  9 35  1  0
 10 36  1  6
 11 37  1  0
 11 38  1  0
 12 39  1  0
 14 40  1  6
 16 41  1  0
 16 42  1  0
 17 43  1  0
 17 44  1  0
 19 45  1  0
 20 46  1  0
 23 47  1  0
 24 48  1  0
 26 49  1  0
M  END
>  <filename_input>  (21) 
8GFD_ZHR_docked.sdf

>  <pdb_id>  (21) 
8GFD_ZHR

>  <pose_rank>  (21) 
20

>  <num_atoms_heavy>  (21) 
26

>  <num_torsions>  (21) 
6

>  <pose>  (21) 
[-33.543374850223024, -65.40502803835307, -14.800120200844018, -1.2522501782910593, 0.7123863176015783, 0.01602523864175014, -3.2033082496415144, -2.328768038387458, -4.967313564549292, -7.5194914106310575, -1.0866170701823363, 1.4077788591643619]

>  <energy>  (21) 
-471.5368224657359

>  <inter_energy>  (21) 
-493.2145007768852

>  <intra_energy>  (21) 
19.805588680169834

>  <rmsd>  (21) 
3.4795

>  <sdf_rank>  (21) 
0

$$$$

     RDKit          3D

 49 51  0  0  0  0  0  0  0  0999 V2000
  -36.5358  -65.2084  -12.3624 C   0  0  0  0  0  0  0  0  0  0  0  0
  -35.6793  -64.9323  -13.5448 C   0  0  0  0  0  0  0  0  0  0  0  0
  -35.1092  -65.8209  -14.1382 O   0  0  0  0  0  0  0  0  0  0  0  0
  -35.5452  -63.6581  -13.9367 N   0  0  0  0  0  0  0  0  0  0  0  0
  -34.7913  -63.1716  -15.0707 C   0  0  2  0  0  0  0  0  0  0  0  0
  -35.1312  -63.9656  -16.3246 C   0  0  1  0  0  0  0  0  0  0  0  0
  -36.5288  -63.8615  -16.6273 O   0  0  0  0  0  0  0  0  0  0  0  0
  -34.2857  -63.4596  -17.4863 C   0  0  2  0  0  0  0  0  0  0  0  0
  -34.4727  -64.2738  -18.6350 O   0  0  0  0  0  0  0  0  0  0  0  0
  -32.7960  -63.5039  -17.1326 C   0  0  1  0  0  0  0  0  0  0  0  0
  -31.9433  -62.8901  -18.1774 C   0  0  0  0  0  0  0  0  0  0  0  0
  -31.0017  -63.8479  -18.7265 O   0  0  0  0  0  0  0  0  0  0  0  0
  -32.5820  -62.7113  -15.9642 O   0  0  0  0  0  0  0  0  0  0  0  0
  -33.2592  -63.2231  -14.8262 C   0  0  1  0  0  0  0  0  0  0  0  0
  -32.9595  -62.4293  -13.7286 O   0  0  0  0  0  0  0  0  0  0  0  0
  -31.5576  -62.2106  -13.4333 C   0  0  0  0  0  0  0  0  0  0  0  0
  -31.2718  -60.8002  -12.9616 C   0  0  0  0  0  0  0  0  0  0  0  0
  -30.0743  -60.5403  -12.0648 C   0  0  0  0  0  0  0  0  0  0  0  0
  -30.1478  -59.5370  -11.1069 C   0  0  0  0  0  0  0  0  0  0  0  0
  -29.1160  -59.2607  -10.2090 C   0  0  0  0  0  0  0  0  0  0  0  0
  -27.9909  -60.0357  -10.2994 C   0  0  0  0  0  0  0  0  0  0  0  0
  -26.8595  -59.8532   -9.5594 O   0  0  0  0  0  0  0  0  0  0  0  0
  -25.9342  -60.9228   -9.9101 C   0  0  0  0  0  0  0  0  0  0  0  0
  -26.4948  -61.6710  -11.1050 C   0  0  0  0  0  0  0  0  0  0  0  0
  -27.8617  -61.0424  -11.2473 C   0  0  0  0  0  0  0  0  0  0  0  0
  -28.9243  -61.3311  -12.1046 C   0  0  0  0  0  0  0  0  0  0  0  0
  -35.9617  -65.0233  -11.4425 H   0  0  0  0  0  0  0  0  0  0  0  0
  -37.4155  -64.5483  -12.3846 H   0  0  0  0  0  0  0  0  0  0  0  0
  -36.8643  -66.2580  -12.3846 H   0  0  0  0  0  0  0  0  0  0  0  0
  -36.0313  -62.9490  -13.3694 H   0  0  0  0  0  0  0  0  0  0  0  0
  -35.0776  -62.1187  -15.2103 H   0  0  0  0  0  0  0  0  0  0  0  0
  -34.9058  -65.0284  -16.1523 H   0  0  0  0  0  0  0  0  0  0  0  0
  -37.0470  -63.8229  -15.7847 H   0  0  0  0  0  0  0  0  0  0  0  0
  -34.6019  -62.4260  -17.6908 H   0  0  0  0  0  0  0  0  0  0  0  0
  -34.6852  -65.1987  -18.3528 H   0  0  0  0  0  0  0  0  0  0  0  0
  -32.5332  -64.5647  -17.0073 H   0  0  0  0  0  0  0  0  0  0  0  0
  -32.5855  -62.5154  -18.9881 H   0  0  0  0  0  0  0  0  0  0  0  0
  -31.3724  -62.0695  -17.7186 H   0  0  0  0  0  0  0  0  0  0  0  0
  -30.5400  -64.3177  -17.9874 H   0  0  0  0  0  0  0  0  0  0  0  0
  -32.9434  -64.2612  -14.6457 H   0  0  0  0  0  0  0  0  0  0  0  0
  -31.2502  -62.9140  -12.6455 H   0  0  0  0  0  0  0  0  0  0  0  0
  -30.9936  -62.3698  -14.3642 H   0  0  0  0  0  0  0  0  0  0  0  0
  -31.1373  -60.1827  -13.8619 H   0  0  0  0  0  0  0  0  0  0  0  0
  -32.1324  -60.5632  -12.3188 H   0  0  0  0  0  0  0  0  0  0  0  0
  -31.0641  -58.9308  -11.0535 H   0  0  0  0  0  0  0  0  0  0  0  0
  -29.2025  -58.4571   -9.4628 H   0  0  0  0  0  0  0  0  0  0  0  0
  -24.9888  -61.1495   -9.3954 H   0  0  0  0  0  0  0  0  0  0  0  0
  -26.0286  -62.4632  -11.7092 H   0  0  0  0  0  0  0  0  0  0  0  0
  -28.8563  -62.1753  -12.8065 H   0  0  0  0  0  0  0  0  0  0  0  0
  1  2  1  0
  2  3  2  0
  2  4  1  0
  5  4  1  0
  5  6  1  0
  5 14  1  0
  6  7  1  0
  6  8  1  0
  8  9  1  0
  8 10  1  0
 10 11  1  0
 10 13  1  0
 11 12  1  0
 13 14  1  0
 14 15  1  0
 15 16  1  0
 16 17  1  0
 17 18  1  0
 18 19  2  0
 18 26  1  0
 19 20  1  0
 20 21  2  0
 21 22  1  0
 21 25  1  0
 22 23  1  0
 23 24  2  0
 24 25  1  0
 25 26  2  0
  1 27  1  0
  1 28  1  0
  1 29  1  0
  4 30  1  0
  5 31  1  6
  6 32  1  1
  7 33  1  0
  8 34  1  6
  9 35  1  0
 10 36  1  1
 11 37  1  0
 11 38  1  0
 12 39  1  0
 14 40  1  1
 16 41  1  0
 16 42  1  0
 17 43  1  0
 17 44  1  0
 19 45  1  0
 20 46  1  0
 23 47  1  0
 24 48  1  0
 26 49  1  0
M  END
>  <filename_input>  (22) 
8GFD_ZHR_docked.sdf

>  <pdb_id>  (22) 
8GFD_ZHR

>  <pose_rank>  (22) 
21

>  <num_atoms_heavy>  (22) 
26

>  <num_torsions>  (22) 
6

>  <pose>  (22) 
[-34.791280958285164, -63.17161830832891, -15.07067173395793, 0.6762855361600201, 0.6292914392123206, 3.0114772369208986, 3.0304604105446007, 0.9715953321693822, 6.7925684098483545, -8.602436209850582, 3.6135704216096034, 0.9906301775306814]

>  <energy>  (22) 
-541.7760868207188

>  <inter_energy>  (22) 
-561.6011873942401

>  <intra_energy>  (22) 
21.07004023217117

>  <rmsd>  (22) 
3.68423

>  <sdf_rank>  (22) 
0

$$$$

     RDKit          3D

 49 51  0  0  0  0  0  0  0  0999 V2000
  -28.4640  -62.1390  -14.4135 C   0  0  0  0  0  0  0  0  0  0  0  0
  -29.4732  -63.2092  -14.6230 C   0  0  0  0  0  0  0  0  0  0  0  0
  -29.4118  -64.2652  -14.0333 O   0  0  0  0  0  0  0  0  0  0  0  0
  -30.4600  -62.9762  -15.4990 N   0  0  0  0  0  0  0  0  0  0  0  0
  -31.5558  -63.8597  -15.8299 C   0  0  2  0  0  0  0  0  0  0  0  0
  -31.6863  -64.0148  -17.3390 C   0  0  1  0  0  0  0  0  0  0  0  0
  -30.4812  -64.5527  -17.8995 O   0  0  0  0  0  0  0  0  0  0  0  0
  -32.8773  -64.9113  -17.6525 C   0  0  2  0  0  0  0  0  0  0  0  0
  -33.1146  -64.9591  -19.0521 O   0  0  0  0  0  0  0  0  0  0  0  0
  -34.1501  -64.3731  -16.9915 C   0  0  1  0  0  0  0  0  0  0  0  0
  -35.3055  -65.2869  -17.1509 C   0  0  0  0  0  0  0  0  0  0  0  0
  -36.4736  -64.5859  -17.6504 O   0  0  0  0  0  0  0  0  0  0  0  0
  -33.9315  -64.2913  -15.5828 O   0  0  0  0  0  0  0  0  0  0  0  0
  -32.9065  -63.3699  -15.2423 C   0  0  1  0  0  0  0  0  0  0  0  0
  -32.7930  -63.3122  -13.8608 O   0  0  0  0  0  0  0  0  0  0  0  0
  -33.3828  -62.1677  -13.1956 C   0  0  0  0  0  0  0  0  0  0  0  0
  -34.2877  -62.5604  -12.0466 C   0  0  0  0  0  0  0  0  0  0  0  0
  -35.2987  -63.6768  -12.2396 C   0  0  0  0  0  0  0  0  0  0  0  0
  -35.4201  -64.6595  -11.2653 C   0  0  0  0  0  0  0  0  0  0  0  0
  -36.3539  -65.6941  -11.3356 C   0  0  0  0  0  0  0  0  0  0  0  0
  -37.1785  -65.7122  -12.4284 C   0  0  0  0  0  0  0  0  0  0  0  0
  -38.0898  -66.6907  -12.6987 O   0  0  0  0  0  0  0  0  0  0  0  0
  -38.8018  -66.2987  -13.9081 C   0  0  0  0  0  0  0  0  0  0  0  0
  -38.1048  -65.0912  -14.5064 C   0  0  0  0  0  0  0  0  0  0  0  0
  -37.0895  -64.7613  -13.4367 C   0  0  0  0  0  0  0  0  0  0  0  0
  -36.1792  -63.7098  -13.3227 C   0  0  0  0  0  0  0  0  0  0  0  0
  -28.3152  -61.9812  -13.3351 H   0  0  0  0  0  0  0  0  0  0  0  0
  -27.5113  -62.4379  -14.8752 H   0  0  0  0  0  0  0  0  0  0  0  0
  -28.8182  -61.2055  -14.8752 H   0  0  0  0  0  0  0  0  0  0  0  0
  -30.4353  -62.0707  -15.9892 H   0  0  0  0  0  0  0  0  0  0  0  0
  -31.3219  -64.8343  -15.3765 H   0  0  0  0  0  0  0  0  0  0  0  0
  -31.8519  -63.0259  -17.7916 H   0  0  0  0  0  0  0  0  0  0  0  0
  -29.8707  -64.8252  -17.1694 H   0  0  0  0  0  0  0  0  0  0  0  0
  -32.6383  -65.9136  -17.2675 H   0  0  0  0  0  0  0  0  0  0  0  0
  -34.0713  -65.1521  -19.2182 H   0  0  0  0  0  0  0  0  0  0  0  0
  -34.3671  -63.4052  -17.4670 H   0  0  0  0  0  0  0  0  0  0  0  0
  -35.0361  -66.0832  -17.8604 H   0  0  0  0  0  0  0  0  0  0  0  0
  -35.5513  -65.7075  -16.1647 H   0  0  0  0  0  0  0  0  0  0  0  0
  -37.0148  -64.2611  -16.8877 H   0  0  0  0  0  0  0  0  0  0  0  0
  -33.1537  -62.3777  -15.6480 H   0  0  0  0  0  0  0  0  0  0  0  0
  -32.5740  -61.5325  -12.8051 H   0  0  0  0  0  0  0  0  0  0  0  0
  -33.9981  -61.6346  -13.9354 H   0  0  0  0  0  0  0  0  0  0  0  0
  -33.6352  -62.8601  -11.2133 H   0  0  0  0  0  0  0  0  0  0  0  0
  -34.9134  -61.6687  -11.8938 H   0  0  0  0  0  0  0  0  0  0  0  0
  -34.7473  -64.6202  -10.3959 H   0  0  0  0  0  0  0  0  0  0  0  0
  -36.4242  -66.4600  -10.5491 H   0  0  0  0  0  0  0  0  0  0  0  0
  -39.6940  -66.7946  -14.3181 H   0  0  0  0  0  0  0  0  0  0  0  0
  -38.2899  -64.5878  -15.4667 H   0  0  0  0  0  0  0  0  0  0  0  0
  -36.1554  -62.9129  -14.0806 H   0  0  0  0  0  0  0  0  0  0  0  0
  1  2  1  0
  2  3  2  0
  2  4  1  0
  5  4  1  0
  5  6  1  0
  5 14  1  0
  6  7  1  0
  6  8  1  0
  8  9  1  0
  8 10  1  0
 10 11  1  0
 10 13  1  0
 11 12  1  0
 13 14  1  0
 14 15  1  0
 15 16  1  0
 16 17  1  0
 17 18  1  0
 18 19  2  0
 18 26  1  0
 19 20  1  0
 20 21  2  0
 21 22  1  0
 21 25  1  0
 22 23  1  0
 23 24  2  0
 24 25  1  0
 25 26  2  0
  1 27  1  0
  1 28  1  0
  1 29  1  0
  4 30  1  0
  5 31  1  1
  6 32  1  6
  7 33  1  0
  8 34  1  1
  9 35  1  0
 10 36  1  6
 11 37  1  0
 11 38  1  0
 12 39  1  0
 14 40  1  6
 16 41  1  0
 16 42  1  0
 17 43  1  0
 17 44  1  0
 19 45  1  0
 20 46  1  0
 23 47  1  0
 24 48  1  0
 26 49  1  0
M  END
>  <filename_input>  (23) 
8GFD_ZHR_docked.sdf

>  <pdb_id>  (23) 
8GFD_ZHR

>  <pose_rank>  (23) 
22

>  <num_atoms_heavy>  (23) 
26

>  <num_torsions>  (23) 
6

>  <pose>  (23) 
[-31.555817818188636, -63.85972543953573, -15.829924513803084, 5.632929714800889, 2.051026665577592, 0.46502249337855794, -0.0937005822131817, 0.7912986644231317, -6.627556386789295, -2.5355614763488847, 6.415115939772042, -0.38885396871056366]

>  <energy>  (23) 
-475.0953719344668

>  <inter_energy>  (23) 
-474.0724444159284

>  <intra_energy>  (23) 
5.670060518414442

>  <rmsd>  (23) 
5.35934

>  <sdf_rank>  (23) 
0

$$$$

     RDKit          3D

 49 51  0  0  0  0  0  0  0  0999 V2000
  -32.8079  -64.6939  -15.9948 C   0  0  0  0  0  0  0  0  0  0  0  0
  -31.3763  -64.5719  -15.6159 C   0  0  0  0  0  0  0  0  0  0  0  0
  -30.5087  -64.4249  -16.4481 O   0  0  0  0  0  0  0  0  0  0  0  0
  -31.0654  -64.6389  -14.3143 N   0  0  0  0  0  0  0  0  0  0  0  0
  -29.7501  -64.5137  -13.7267 C   0  0  2  0  0  0  0  0  0  0  0  0
  -29.2800  -65.8499  -13.1680 C   0  0  1  0  0  0  0  0  0  0  0  0
  -29.2251  -66.8410  -14.2025 O   0  0  0  0  0  0  0  0  0  0  0  0
  -27.9151  -65.6712  -12.5154 C   0  0  2  0  0  0  0  0  0  0  0  0
  -27.5134  -66.8643  -11.8578 O   0  0  0  0  0  0  0  0  0  0  0  0
  -27.9593  -64.5610  -11.4609 C   0  0  1  0  0  0  0  0  0  0  0  0
  -26.6229  -64.2547  -10.8990 C   0  0  0  0  0  0  0  0  0  0  0  0
  -26.4010  -62.8240  -10.8030 O   0  0  0  0  0  0  0  0  0  0  0  0
  -28.3846  -63.3520  -12.0906 O   0  0  0  0  0  0  0  0  0  0  0  0
  -29.7044  -63.4404  -12.6062 C   0  0  1  0  0  0  0  0  0  0  0  0
  -30.0578  -62.2152  -13.1526 O   0  0  0  0  0  0  0  0  0  0  0  0
  -29.1786  -61.0940  -12.8872 C   0  0  0  0  0  0  0  0  0  0  0  0
  -29.6926  -60.1959  -11.7815 C   0  0  0  0  0  0  0  0  0  0  0  0
  -31.0561  -60.4678  -11.1710 C   0  0  0  0  0  0  0  0  0  0  0  0
  -32.1969  -60.2577  -11.9352 C   0  0  0  0  0  0  0  0  0  0  0  0
  -33.4861  -60.5264  -11.4736 C   0  0  0  0  0  0  0  0  0  0  0  0
  -33.5989  -61.0236  -10.2029 C   0  0  0  0  0  0  0  0  0  0  0  0
  -34.7799  -61.2653   -9.5645 O   0  0  0  0  0  0  0  0  0  0  0  0
  -34.4612  -61.8492   -8.2681 C   0  0  0  0  0  0  0  0  0  0  0  0
  -32.9630  -61.7483   -8.0506 C   0  0  0  0  0  0  0  0  0  0  0  0
  -32.4914  -61.2393   -9.3931 C   0  0  0  0  0  0  0  0  0  0  0  0
  -31.2091  -61.0068   -9.8921 C   0  0  0  0  0  0  0  0  0  0  0  0
  -33.4246  -64.7464  -15.0855 H   0  0  0  0  0  0  0  0  0  0  0  0
  -33.1057  -63.8178  -16.5897 H   0  0  0  0  0  0  0  0  0  0  0  0
  -32.9532  -65.6076  -16.5897 H   0  0  0  0  0  0  0  0  0  0  0  0
  -31.8471  -64.7965  -13.6624 H   0  0  0  0  0  0  0  0  0  0  0  0
  -29.0749  -64.1916  -14.5331 H   0  0  0  0  0  0  0  0  0  0  0  0
  -29.9976  -66.1982  -12.4105 H   0  0  0  0  0  0  0  0  0  0  0  0
  -29.1752  -67.7416  -13.7945 H   0  0  0  0  0  0  0  0  0  0  0  0
  -27.2050  -65.4139  -13.3152 H   0  0  0  0  0  0  0  0  0  0  0  0
  -27.5580  -66.7319  -10.8777 H   0  0  0  0  0  0  0  0  0  0  0  0
  -28.6320  -64.9102  -10.6637 H   0  0  0  0  0  0  0  0  0  0  0  0
  -26.5480  -64.6962   -9.8943 H   0  0  0  0  0  0  0  0  0  0  0  0
  -25.8612  -64.6776  -11.5706 H   0  0  0  0  0  0  0  0  0  0  0  0
  -26.3600  -62.5597   -9.8498 H   0  0  0  0  0  0  0  0  0  0  0  0
  -30.3982  -63.7135  -11.7975 H   0  0  0  0  0  0  0  0  0  0  0  0
  -28.1919  -61.4824  -12.5949 H   0  0  0  0  0  0  0  0  0  0  0  0
  -29.1233  -60.4911  -13.8056 H   0  0  0  0  0  0  0  0  0  0  0  0
  -28.9598  -60.2450  -10.9626 H   0  0  0  0  0  0  0  0  0  0  0  0
  -29.8210  -59.2226  -12.2776 H   0  0  0  0  0  0  0  0  0  0  0  0
  -32.0782  -59.8603  -12.9540 H   0  0  0  0  0  0  0  0  0  0  0  0
  -34.3710  -60.3469  -12.1017 H   0  0  0  0  0  0  0  0  0  0  0  0
  -35.1846  -62.2889   -7.5657 H   0  0  0  0  0  0  0  0  0  0  0  0
  -32.3745  -61.9839   -7.1517 H   0  0  0  0  0  0  0  0  0  0  0  0
  -30.3254  -61.2464   -9.2824 H   0  0  0  0  0  0  0  0  0  0  0  0
  1  2  1  0
  2  3  2  0
  2  4  1  0
  5  4  1  0
  5  6  1  0
  5 14  1  0
  6  7  1  0
  6  8  1  0
  8  9  1  0
  8 10  1  0
 10 11  1  0
 10 13  1  0
 11 12  1  0
 13 14  1  0
 14 15  1  0
 15 16  1  0
 16 17  1  0
 17 18  1  0
 18 19  2  0
 18 26  1  0
 19 20  1  0
 20 21  2  0
 21 22  1  0
 21 25  1  0
 22 23  1  0
 23 24  2  0
 24 25  1  0
 25 26  2  0
  1 27  1  0
  1 28  1  0
  1 29  1  0
  4 30  1  0
  5 31  1  6
  6 32  1  1
  7 33  1  0
  8 34  1  6
  9 35  1  0
 10 36  1  1
 11 37  1  0
 11 38  1  0
 12 39  1  0
 14 40  1  1
 16 41  1  0
 16 42  1  0
 17 43  1  0
 17 44  1  0
 19 45  1  0
 20 46  1  0
 23 47  1  0
 24 48  1  0
 26 49  1  0
M  END
>  <filename_input>  (24) 
8GFD_ZHR_docked.sdf

>  <pdb_id>  (24) 
8GFD_ZHR

>  <pose_rank>  (24) 
23

>  <num_atoms_heavy>  (24) 
26

>  <num_torsions>  (24) 
6

>  <pose>  (24) 
[-29.75007397873206, -64.51374930092446, -13.72674176579767, 1.7695324337466622, -2.113353494715591, -2.2553072192690524, 25.383323845984314, -0.8590295445483701, -42.72537012855355, -31.674340822899016, -99.68330755662431, 21.20419374717947]

>  <energy>  (24) 
-480.7954189477411

>  <inter_energy>  (24) 
-492.34507443424604

>  <intra_energy>  (24) 
9.563271501764257

>  <rmsd>  (24) 
5.71686

>  <sdf_rank>  (24) 
0

$$$$

     RDKit          3D

 49 51  0  0  0  0  0  0  0  0999 V2000
  -30.5279  -62.8325  -10.9123 C   0  0  0  0  0  0  0  0  0  0  0  0
  -31.7463  -62.6880  -11.7505 C   0  0  0  0  0  0  0  0  0  0  0  0
  -32.0531  -61.6276  -12.2487 O   0  0  0  0  0  0  0  0  0  0  0  0
  -32.5110  -63.7725  -11.9354 N   0  0  0  0  0  0  0  0  0  0  0  0
  -33.7135  -63.8631  -12.7334 C   0  0  2  0  0  0  0  0  0  0  0  0
  -34.8017  -64.6204  -11.9844 C   0  0  1  0  0  0  0  0  0  0  0  0
  -35.1208  -63.9619  -10.7515 O   0  0  0  0  0  0  0  0  0  0  0  0
  -36.0349  -64.7386  -12.8709 C   0  0  2  0  0  0  0  0  0  0  0  0
  -37.0155  -65.5639  -12.2587 O   0  0  0  0  0  0  0  0  0  0  0  0
  -35.6763  -65.3766  -14.2166 C   0  0  1  0  0  0  0  0  0  0  0  0
  -36.8143  -65.3837  -15.1655 C   0  0  0  0  0  0  0  0  0  0  0  0
  -37.6757  -66.5321  -14.9549 O   0  0  0  0  0  0  0  0  0  0  0  0
  -34.6723  -64.5791  -14.8450 O   0  0  0  0  0  0  0  0  0  0  0  0
  -33.4611  -64.5441  -14.1053 C   0  0  1  0  0  0  0  0  0  0  0  0
  -32.5267  -63.7950  -14.8057 O   0  0  0  0  0  0  0  0  0  0  0  0
  -32.5713  -63.8666  -16.2525 C   0  0  0  0  0  0  0  0  0  0  0  0
  -31.3920  -64.6147  -16.8383 C   0  0  0  0  0  0  0  0  0  0  0  0
  -31.5554  -65.3549  -18.1540 C   0  0  0  0  0  0  0  0  0  0  0  0
  -31.7184  -64.6284  -19.3266 C   0  0  0  0  0  0  0  0  0  0  0  0
  -31.8273  -65.2224  -20.5847 C   0  0  0  0  0  0  0  0  0  0  0  0
  -31.7631  -66.5892  -20.6329 C   0  0  0  0  0  0  0  0  0  0  0  0
  -31.9319  -67.3362  -21.7619 O   0  0  0  0  0  0  0  0  0  0  0  0
  -31.7199  -68.7305  -21.3956 C   0  0  0  0  0  0  0  0  0  0  0  0
  -31.6223  -68.8211  -19.8842 C   0  0  0  0  0  0  0  0  0  0  0  0
  -31.6142  -67.3625  -19.4890 C   0  0  0  0  0  0  0  0  0  0  0  0
  -31.4614  -66.7449  -18.2470 C   0  0  0  0  0  0  0  0  0  0  0  0
  -30.8082  -62.7992   -9.8491 H   0  0  0  0  0  0  0  0  0  0  0  0
  -30.0425  -63.7945  -11.1336 H   0  0  0  0  0  0  0  0  0  0  0  0
  -29.8310  -62.0107  -11.1336 H   0  0  0  0  0  0  0  0  0  0  0  0
  -32.2101  -64.6342  -11.4579 H   0  0  0  0  0  0  0  0  0  0  0  0
  -34.0439  -62.8310  -12.9223 H   0  0  0  0  0  0  0  0  0  0  0  0
  -34.4374  -65.6289  -11.7391 H   0  0  0  0  0  0  0  0  0  0  0  0
  -34.8442  -64.5327   -9.9913 H   0  0  0  0  0  0  0  0  0  0  0  0
  -36.4255  -63.7211  -13.0195 H   0  0  0  0  0  0  0  0  0  0  0  0
  -36.9355  -65.4966  -11.2743 H   0  0  0  0  0  0  0  0  0  0  0  0
  -35.3586  -66.4076  -14.0019 H   0  0  0  0  0  0  0  0  0  0  0  0
  -37.4027  -64.4650  -15.0247 H   0  0  0  0  0  0  0  0  0  0  0  0
  -36.4109  -65.4378  -16.1874 H   0  0  0  0  0  0  0  0  0  0  0  0
  -37.7904  -66.6850  -13.9835 H   0  0  0  0  0  0  0  0  0  0  0  0
  -33.0932  -65.5694  -13.9525 H   0  0  0  0  0  0  0  0  0  0  0  0
  -33.4971  -64.3804  -16.5508 H   0  0  0  0  0  0  0  0  0  0  0  0
  -32.5351  -62.8367  -16.6370 H   0  0  0  0  0  0  0  0  0  0  0  0
  -30.5865  -63.8797  -16.9825 H   0  0  0  0  0  0  0  0  0  0  0  0
  -31.2085  -65.4187  -16.1104 H   0  0  0  0  0  0  0  0  0  0  0  0
  -31.7639  -63.5314  -19.2604 H   0  0  0  0  0  0  0  0  0  0  0  0
  -31.9586  -64.6201  -21.4957 H   0  0  0  0  0  0  0  0  0  0  0  0
  -31.6435  -69.5748  -22.0965 H   0  0  0  0  0  0  0  0  0  0  0  0
  -31.5710  -69.7142  -19.2441 H   0  0  0  0  0  0  0  0  0  0  0  0
  -31.2684  -67.3486  -17.3480 H   0  0  0  0  0  0  0  0  0  0  0  0
  1  2  1  0
  2  3  2  0
  2  4  1  0
  5  4  1  0
  5  6  1  0
  5 14  1  0
  6  7  1  0
  6  8  1  0
  8  9  1  0
  8 10  1  0
 10 11  1  0
 10 13  1  0
 11 12  1  0
 13 14  1  0
 14 15  1  0
 15 16  1  0
 16 17  1  0
 17 18  1  0
 18 19  2  0
 18 26  1  0
 19 20  1  0
 20 21  2  0
 21 22  1  0
 21 25  1  0
 22 23  1  0
 23 24  2  0
 24 25  1  0
 25 26  2  0
  1 27  1  0
  1 28  1  0
  1 29  1  0
  4 30  1  0
  5 31  1  6
  6 32  1  1
  7 33  1  0
  8 34  1  6
  9 35  1  0
 10 36  1  1
 11 37  1  0
 11 38  1  0
 12 39  1  0
 14 40  1  1
 16 41  1  0
 16 42  1  0
 17 43  1  0
 17 44  1  0
 19 45  1  0
 20 46  1  0
 23 47  1  0
 24 48  1  0
 26 49  1  0
M  END
>  <filename_input>  (25) 
8GFD_ZHR_docked.sdf

>  <pdb_id>  (25) 
8GFD_ZHR

>  <pose_rank>  (25) 
24

>  <num_atoms_heavy>  (25) 
26

>  <num_torsions>  (25) 
6

>  <pose>  (25) 
[-33.713528745880694, -63.863093958019135, -12.733360479125961, -2.6136195229315913, -1.0151918733176255, -1.4041103490793232, -0.18319560498655849, 1.5757862425881328, -5.4372349849752295, -0.42311676312118673, -2.7140526401360296, -1.5111922620784435]

>  <energy>  (25) 
-405.9225794397324

>  <inter_energy>  (25) 
-415.2243674467704

>  <intra_energy>  (25) 
8.35419663366861

>  <rmsd>  (25) 
7.4797

>  <sdf_rank>  (25) 
0

$$$$

     RDKit          3D

 49 51  0  0  0  0  0  0  0  0999 V2000
  -28.6240  -62.2510  -14.0110 C   0  0  0  0  0  0  0  0  0  0  0  0
  -29.6300  -63.2680  -14.4130 C   0  0  0  0  0  0  0  0  0  0  0  0
  -29.4570  -64.4490  -14.2080 O   0  0  0  0  0  0  0  0  0  0  0  0
  -30.7430  -62.8400  -15.0240 N   0  0  0  0  0  0  0  0  0  0  0  0
  -31.8570  -63.6480  -15.4680 C   0  0  2  0  0  0  0  0  0  0  0  0
  -32.1270  -63.4260  -16.9500 C   0  0  1  0  0  0  0  0  0  0  0  0
  -30.9750  -63.7680  -17.7320 O   0  0  0  0  0  0  0  0  0  0  0  0
  -33.3340  -64.2540  -17.3720 C   0  0  2  0  0  0  0  0  0  0  0  0
  -33.7010  -63.9590  -18.7120 O   0  0  0  0  0  0  0  0  0  0  0  0
  -34.5440  -63.9390  -16.4870 C   0  0  1  0  0  0  0  0  0  0  0  0
  -35.7010  -64.8210  -16.7680 C   0  0  0  0  0  0  0  0  0  0  0  0
  -36.8680  -64.4290  -16.0000 O   0  0  0  0  0  0  0  0  0  0  0  0
  -34.1950  -64.2040  -15.1280 O   0  0  0  0  0  0  0  0  0  0  0  0
  -33.1510  -63.3640  -14.6590 C   0  0  1  0  0  0  0  0  0  0  0  0
  -32.9090  -63.6490  -13.3230 O   0  0  0  0  0  0  0  0  0  0  0  0
  -33.7740  -63.0200  -12.3450 C   0  0  0  0  0  0  0  0  0  0  0  0
  -33.3080  -61.6320  -11.9580 C   0  0  0  0  0  0  0  0  0  0  0  0
  -31.8830  -61.4300  -11.4740 C   0  0  0  0  0  0  0  0  0  0  0  0
  -31.2970  -60.1760  -11.5910 C   0  0  0  0  0  0  0  0  0  0  0  0
  -30.0120  -59.8870  -11.1300 C   0  0  0  0  0  0  0  0  0  0  0  0
  -29.3220  -60.9090  -10.5350 C   0  0  0  0  0  0  0  0  0  0  0  0
  -28.0310  -60.8270  -10.1020 O   0  0  0  0  0  0  0  0  0  0  0  0
  -27.7020  -62.1000   -9.4740 C   0  0  0  0  0  0  0  0  0  0  0  0
  -28.8300  -63.0770   -9.7480 C   0  0  0  0  0  0  0  0  0  0  0  0
  -29.8570  -62.1840  -10.4050 C   0  0  0  0  0  0  0  0  0  0  0  0
  -31.1610  -62.4380  -10.8320 C   0  0  0  0  0  0  0  0  0  0  0  0
  -28.5731  -62.1995  -12.9134 H   0  0  0  0  0  0  0  0  0  0  0  0
  -27.6386  -62.5319  -14.4110 H   0  0  0  0  0  0  0  0  0  0  0  0
  -28.9156  -61.2687  -14.4110 H   0  0  0  0  0  0  0  0  0  0  0  0
  -30.8126  -61.8268  -15.1959 H   0  0  0  0  0  0  0  0  0  0  0  0
  -31.5728  -64.6967  -15.2966 H   0  0  0  0  0  0  0  0  0  0  0  0
  -32.3432  -62.3614  -17.1231 H   0  0  0  0  0  0  0  0  0  0  0  0
  -30.2218  -63.9916  -17.1297 H   0  0  0  0  0  0  0  0  0  0  0  0
  -33.0509  -65.3124  -17.2739 H   0  0  0  0  0  0  0  0  0  0  0  0
  -34.4726  -63.3388  -18.7139 H   0  0  0  0  0  0  0  0  0  0  0  0
  -34.8134  -62.8906  -16.6829 H   0  0  0  0  0  0  0  0  0  0  0  0
  -35.9425  -64.7631  -17.8396 H   0  0  0  0  0  0  0  0  0  0  0  0
  -35.4292  -65.8479  -16.4825 H   0  0  0  0  0  0  0  0  0  0  0  0
  -36.6651  -64.4972  -15.0334 H   0  0  0  0  0  0  0  0  0  0  0  0
  -33.4441  -62.3106  -14.7788 H   0  0  0  0  0  0  0  0  0  0  0  0
  -34.7870  -62.9459  -12.7674 H   0  0  0  0  0  0  0  0  0  0  0  0
  -33.7556  -63.6413  -11.4374 H   0  0  0  0  0  0  0  0  0  0  0  0
  -33.4391  -60.9920  -12.8430 H   0  0  0  0  0  0  0  0  0  0  0  0
  -33.9176  -61.3916  -11.0745 H   0  0  0  0  0  0  0  0  0  0  0  0
  -31.8741  -59.3715  -12.0704 H   0  0  0  0  0  0  0  0  0  0  0  0
  -29.5735  -58.8841  -11.2396 H   0  0  0  0  0  0  0  0  0  0  0  0
  -26.7899  -62.3162   -8.8985 H   0  0  0  0  0  0  0  0  0  0  0  0
  -28.8857  -64.1530   -9.5265 H   0  0  0  0  0  0  0  0  0  0  0  0
  -31.6167  -63.4250  -10.6641 H   0  0  0  0  0  0  0  0  0  0  0  0
  1  2  1  0
  2  3  2  0
  2  4  1  0
  5  4  1  0
  5  6  1  0
  5 14  1  0
  6  7  1  0
  6  8  1  0
  8  9  1  0
  8 10  1  0
 10 11  1  0
 10 13  1  0
 11 12  1  0
 13 14  1  0
 14 15  1  0
 15 16  1  0
 16 17  1  0
 17 18  1  0
 18 19  2  0
 18 26  1  0
 19 20  1  0
 20 21  2  0
 21 22  1  0
 21 25  1  0
 22 23  1  0
 23 24  2  0
 24 25  1  0
 25 26  2  0
  1 27  1  0
  1 28  1  0
  1 29  1  0
  4 30  1  0
  5 31  1  6
  6 32  1  1
  7 33  1  0
  8 34  1  6
  9 35  1  0
 10 36  1  1
 11 37  1  0
 11 38  1  0
 12 39  1  0
 14 40  1  1
 16 41  1  0
 16 42  1  0
 17 43  1  0
 17 44  1  0
 19 45  1  0
 20 46  1  0
 23 47  1  0
 24 48  1  0
 26 49  1  0
M  END
>  <filename_input>  (26) 
8GFD_ZHR_docked.sdf

>  <pdb_id>  (26) 
8GFD_ZHR

>  <pose_rank>  (26) 
25

>  <num_atoms_heavy>  (26) 
26

>  <num_torsions>  (26) 
6

>  <pose>  (26) 
[-31.857, -63.648, -15.468, 1e-06, 1e-06, 1e-06, 0.0, 0.0, 0.0, 0.0, 0.0, 0.0]

>  <energy>  (26) 
-607.9734575464671

>  <inter_energy>  (26) 
-621.3824590782175

>  <intra_energy>  (26) 
3.625420954182873

>  <rmsd>  (26) 
0.0

>  <sdf_rank>  (26) 
0

$$$$
