
     RDKit          3D

 42 43  0  0  0  0  0  0  0  0999 V2000
   71.4244   -2.2846    0.3968 C   0  0  0  0  0  0  0  0  0  0  0  0
   68.6379    2.5203   -4.5473 C   0  0  0  0  0  0  0  0  0  0  0  0
   68.0193    2.7094   -5.7691 C   0  0  0  0  0  0  0  0  0  0  0  0
   66.8167    2.0320   -5.9848 C   0  0  0  0  0  0  0  0  0  0  0  0
   66.8769    1.0610   -3.9311 C   0  0  0  0  0  0  0  0  0  0  0  0
   70.5671    0.5989   -0.9692 C   0  0  0  0  0  0  0  0  0  0  0  0
   68.7294    1.4559   -2.2736 C   0  0  0  0  0  0  0  0  0  0  0  0
   68.0975    1.8240   -1.0851 C   0  0  0  0  0  0  0  0  0  0  0  0
   69.9224    0.9406    0.2096 C   0  0  0  0  0  0  0  0  0  0  0  0
   68.6858    1.5608    0.1407 C   0  0  0  0  0  0  0  0  0  0  0  0
   71.8005   -3.2096    1.5416 C   0  0  2  0  0  0  0  0  0  0  0  0
   68.0734    1.6844   -3.5863 C   0  0  0  0  0  0  0  0  0  0  0  0
   65.7160    1.1186   -7.8719 C   0  0  0  0  0  0  0  0  0  0  0  0
   70.5952   -3.5455    2.4117 C   0  0  0  0  0  0  0  0  0  0  0  0
   69.9813    0.8357   -2.2030 C   0  0  0  0  0  0  0  0  0  0  0  0
   72.1812   -1.1538    0.3285 N   0  0  0  0  0  0  0  0  0  0  0  0
   66.2491    1.2207   -5.1064 N   0  0  0  0  0  0  0  0  0  0  0  0
   72.9060   -2.6342    2.3295 N   0  0  0  0  0  0  0  0  0  0  0  0
   70.5303   -2.5680   -0.3925 O   0  0  0  0  0  0  0  0  0  0  0  0
   66.1989    2.2546   -7.1607 O   0  0  0  0  0  0  0  0  0  0  0  0
   72.4509   -0.7328   -2.1529 O   0  0  0  0  0  0  0  0  0  0  0  0
   73.0791    0.9596   -0.4672 O   0  0  0  0  0  0  0  0  0  0  0  0
   71.0399   -4.1807    4.0499 S   0  0  0  0  0  0  0  0  0  0  0  0
   72.1942   -0.0764   -0.9078 S   0  0  1  0  0  0  0  0  0  0  0  0
   69.5857    3.0352   -4.3316 H   0  0  0  0  0  0  0  0  0  0  0  0
   68.4550    3.3646   -6.5378 H   0  0  0  0  0  0  0  0  0  0  0  0
   66.4150    0.3924   -3.1897 H   0  0  0  0  0  0  0  0  0  0  0  0
   67.1210    2.3290   -1.1224 H   0  0  0  0  0  0  0  0  0  0  0  0
   70.3852    0.7229    1.1835 H   0  0  0  0  0  0  0  0  0  0  0  0
   68.1666    1.8467    1.0674 H   0  0  0  0  0  0  0  0  0  0  0  0
   72.1525   -4.1594    1.1126 H   0  0  0  0  0  0  0  0  0  0  0  0
   65.3892    0.3497   -7.1564 H   0  0  0  0  0  0  0  0  0  0  0  0
   64.8664    1.4158   -8.5043 H   0  0  0  0  0  0  0  0  0  0  0  0
   66.5196    0.7131   -8.5043 H   0  0  0  0  0  0  0  0  0  0  0  0
   69.9956   -2.6327    2.5433 H   0  0  0  0  0  0  0  0  0  0  0  0
   70.0366   -4.3413    1.8971 H   0  0  0  0  0  0  0  0  0  0  0  0
   70.5002    0.5364   -3.1255 H   0  0  0  0  0  0  0  0  0  0  0  0
   72.8020   -0.9575    1.1266 H   0  0  0  0  0  0  0  0  0  0  0  0
   72.7030   -2.7398    3.3338 H   0  0  0  0  0  0  0  0  0  0  0  0
   73.7818   -3.1264    2.1026 H   0  0  0  0  0  0  0  0  0  0  0  0
   73.0053   -1.6344    2.1026 H   0  0  0  0  0  0  0  0  0  0  0  0
   70.4823   -3.3844    5.0152 H   0  0  0  0  0  0  0  0  0  0  0  0
  1 11  1  0
  1 16  1  0
  1 19  2  0
  2  3  2  0
  2 12  1  0
  3  4  1  0
  4 17  2  0
  4 20  1  0
  5 12  2  0
  5 17  1  0
  6  9  2  0
  6 15  1  0
  6 24  1  0
  7  8  1  0
  7 12  1  0
  7 15  2  0
  8 10  2  0
  9 10  1  0
 11 14  1  0
 11 18  1  0
 13 20  1  0
 14 23  1  0
 24 16  1  1
 21 24  2  0
 22 24  2  0
  2 25  1  0
  3 26  1  0
  5 27  1  0
  8 28  1  0
  9 29  1  0
 10 30  1  0
 11 31  1  6
 13 32  1  0
 13 33  1  0
 13 34  1  0
 14 35  1  0
 14 36  1  0
 15 37  1  0
 16 38  1  0
 18 39  1  0
 18 40  1  0
 18 41  1  0
 23 42  1  0
M  CHG  1  18   1
M  END
>  <filename_input>  (1) 
8HFN_XGC_docked.sdf

>  <pdb_id>  (1) 
8HFN_XGC

>  <pose_rank>  (1) 
0

>  <num_atoms_heavy>  (1) 
24

>  <num_torsions>  (1) 
6

>  <pose>  (1) 
[70.56712874619951, 0.5988648467248554, -0.969168035326711, -4.936490951047073, -3.323523117994828, 1.3996691075836698, -1.7770614772400446, 7.925140636330056, -0.17089727447497016, -6.348850414573399, 6.279336947639649, 0.2093764280527076]

>  <energy>  (1) 
-965.5966019519394

>  <inter_energy>  (1) 
-961.9880834343844

>  <intra_energy>  (1) 
7.401588490628958

>  <rmsd>  (1) 
0.955083

>  <sdf_rank>  (1) 
0

$$$$

     RDKit          3D

 42 43  0  0  0  0  0  0  0  0999 V2000
   71.4102   -1.5476    0.8764 C   0  0  0  0  0  0  0  0  0  0  0  0
   67.7457    1.8616   -5.0227 C   0  0  0  0  0  0  0  0  0  0  0  0
   66.8865    1.7303   -6.0979 C   0  0  0  0  0  0  0  0  0  0  0  0
   66.8361    0.4820   -6.7230 C   0  0  0  0  0  0  0  0  0  0  0  0
   68.3844   -0.4007   -5.3130 C   0  0  0  0  0  0  0  0  0  0  0  0
   69.9282    0.7390   -1.0949 C   0  0  0  0  0  0  0  0  0  0  0  0
   69.4621    0.9103   -3.4543 C   0  0  0  0  0  0  0  0  0  0  0  0
   70.7613    1.3823   -3.6456 C   0  0  0  0  0  0  0  0  0  0  0  0
   71.2084    1.2354   -1.2864 C   0  0  0  0  0  0  0  0  0  0  0  0
   71.6193    1.5495   -2.5714 C   0  0  0  0  0  0  0  0  0  0  0  0
   71.6971   -2.9808    1.2902 C   0  0  2  0  0  0  0  0  0  0  0  0
   68.5219    0.7859   -4.5973 C   0  0  0  0  0  0  0  0  0  0  0  0
   66.5012    0.3357   -9.0626 C   0  0  0  0  0  0  0  0  0  0  0  0
   72.0446   -3.0794    2.7708 C   0  0  0  0  0  0  0  0  0  0  0  0
   69.0505    0.5869   -2.1571 C   0  0  0  0  0  0  0  0  0  0  0  0
   70.0852   -1.2725    0.7190 N   0  0  0  0  0  0  0  0  0  0  0  0
   67.5618   -0.5640   -6.3608 N   0  0  0  0  0  0  0  0  0  0  0  0
   72.7485   -3.5647    0.4372 N   0  0  0  0  0  0  0  0  0  0  0  0
   72.3100   -0.7285    0.7272 O   0  0  0  0  0  0  0  0  0  0  0  0
   65.9658    0.3501   -7.7425 O   0  0  0  0  0  0  0  0  0  0  0  0
   69.9558    1.1426    1.4662 O   0  0  0  0  0  0  0  0  0  0  0  0
   68.0165   -0.0210    0.4735 O   0  0  0  0  0  0  0  0  0  0  0  0
   70.8665   -4.0716    3.7261 S   0  0  0  0  0  0  0  0  0  0  0  0
   69.4282    0.2158    0.5124 S   0  0  1  0  0  0  0  0  0  0  0  0
   67.8170    2.8256   -4.4977 H   0  0  0  0  0  0  0  0  0  0  0  0
   66.2696    2.5720   -6.4459 H   0  0  0  0  0  0  0  0  0  0  0  0
   68.9912   -1.2625   -4.9983 H   0  0  0  0  0  0  0  0  0  0  0  0
   71.1078    1.6242   -4.6611 H   0  0  0  0  0  0  0  0  0  0  0  0
   71.8866    1.3774   -0.4321 H   0  0  0  0  0  0  0  0  0  0  0  0
   72.6356    1.9351   -2.7401 H   0  0  0  0  0  0  0  0  0  0  0  0
   70.7797   -3.5696    1.1431 H   0  0  0  0  0  0  0  0  0  0  0  0
   67.5997    0.3063   -9.0125 H   0  0  0  0  0  0  0  0  0  0  0  0
   66.1346   -0.5529   -9.5973 H   0  0  0  0  0  0  0  0  0  0  0  0
   66.1827    1.2427   -9.5973 H   0  0  0  0  0  0  0  0  0  0  0  0
   73.0409   -3.5360    2.8649 H   0  0  0  0  0  0  0  0  0  0  0  0
   72.0130   -2.0584    3.1790 H   0  0  0  0  0  0  0  0  0  0  0  0
   68.0315    0.2123   -1.9801 H   0  0  0  0  0  0  0  0  0  0  0  0
   69.4367   -2.0726    0.7308 H   0  0  0  0  0  0  0  0  0  0  0  0
   73.4845   -3.9734    1.0307 H   0  0  0  0  0  0  0  0  0  0  0  0
   72.3395   -4.2995   -0.1575 H   0  0  0  0  0  0  0  0  0  0  0  0
   73.1561   -2.8290   -0.1575 H   0  0  0  0  0  0  0  0  0  0  0  0
   71.0903   -3.8830    5.0645 H   0  0  0  0  0  0  0  0  0  0  0  0
  1 11  1  0
  1 16  1  0
  1 19  2  0
  2  3  2  0
  2 12  1  0
  3  4  1  0
  4 17  2  0
  4 20  1  0
  5 12  2  0
  5 17  1  0
  6  9  2  0
  6 15  1  0
  6 24  1  0
  7  8  1  0
  7 12  1  0
  7 15  2  0
  8 10  2  0
  9 10  1  0
 11 14  1  0
 11 18  1  0
 13 20  1  0
 14 23  1  0
 24 16  1  1
 21 24  2  0
 22 24  2  0
  2 25  1  0
  3 26  1  0
  5 27  1  0
  8 28  1  0
  9 29  1  0
 10 30  1  0
 11 31  1  1
 13 32  1  0
 13 33  1  0
 13 34  1  0
 14 35  1  0
 14 36  1  0
 15 37  1  0
 16 38  1  0
 18 39  1  0
 18 40  1  0
 18 41  1  0
 23 42  1  0
M  CHG  1  18   1
M  END
>  <filename_input>  (2) 
8HFN_XGC_docked.sdf

>  <pdb_id>  (2) 
8HFN_XGC

>  <pose_rank>  (2) 
1

>  <num_atoms_heavy>  (2) 
24

>  <num_torsions>  (2) 
6

>  <pose>  (2) 
[69.92815953047771, 0.7390052546654715, -1.0949344439868616, -1.2278325952878397, 0.07352480547818444, -2.0071187364968925, 0.9454636776476184, 1.1372662810654774, -2.290598967262019, 0.04987318682410869, 2.2721354337124726, -1.209280113204948]

>  <energy>  (2) 
-758.2966169549381

>  <inter_energy>  (2) 
-767.2759955136476

>  <intra_energy>  (2) 
17.057053850189572

>  <rmsd>  (2) 
2.39511

>  <sdf_rank>  (2) 
0

$$$$

     RDKit          3D

 42 43  0  0  0  0  0  0  0  0999 V2000
   71.8379   -2.5634    0.2351 C   0  0  0  0  0  0  0  0  0  0  0  0
   68.7219    2.1883   -5.1424 C   0  0  0  0  0  0  0  0  0  0  0  0
   68.3346    2.2374   -6.4687 C   0  0  0  0  0  0  0  0  0  0  0  0
   67.1732    1.5441   -6.8181 C   0  0  0  0  0  0  0  0  0  0  0  0
   66.8446    0.8167   -4.6904 C   0  0  0  0  0  0  0  0  0  0  0  0
   68.9900    0.0954   -0.8445 C   0  0  0  0  0  0  0  0  0  0  0  0
   68.3829    1.3934   -2.7836 C   0  0  0  0  0  0  0  0  0  0  0  0
   68.4817    2.5469   -2.0046 C   0  0  0  0  0  0  0  0  0  0  0  0
   69.0589    1.2418   -0.0679 C   0  0  0  0  0  0  0  0  0  0  0  0
   68.8081    2.4682   -0.6609 C   0  0  0  0  0  0  0  0  0  0  0  0
   73.2918   -2.4762   -0.1964 C   0  0  2  0  0  0  0  0  0  0  0  0
   67.9759    1.4712   -4.2098 C   0  0  0  0  0  0  0  0  0  0  0  0
   66.8039    0.4367   -8.8783 C   0  0  0  0  0  0  0  0  0  0  0  0
   73.5487   -1.2473   -1.0606 C   0  0  0  0  0  0  0  0  0  0  0  0
   68.6430    0.1560   -2.1853 C   0  0  0  0  0  0  0  0  0  0  0  0
   71.0628   -1.5415   -0.2240 N   0  0  0  0  0  0  0  0  0  0  0  0
   66.4392    0.8418   -5.9695 N   0  0  0  0  0  0  0  0  0  0  0  0
   73.7068   -3.7203   -0.8702 N   0  0  0  0  0  0  0  0  0  0  0  0
   71.4237   -3.4944    0.9168 O   0  0  0  0  0  0  0  0  0  0  0  0
   66.7793    1.6317   -8.1031 O   0  0  0  0  0  0  0  0  0  0  0  0
   68.9844   -1.4741    1.2194 O   0  0  0  0  0  0  0  0  0  0  0  0
   68.9748   -2.4844   -1.0344 O   0  0  0  0  0  0  0  0  0  0  0  0
   75.1299   -1.3020   -1.9445 S   0  0  0  0  0  0  0  0  0  0  0  0
   69.4270   -1.4607   -0.1411 S   0  0  1  0  0  0  0  0  0  0  0  0
   69.6287    2.7212   -4.8202 H   0  0  0  0  0  0  0  0  0  0  0  0
   68.9155    2.7977   -7.2160 H   0  0  0  0  0  0  0  0  0  0  0  0
   66.2425    0.2399   -3.9730 H   0  0  0  0  0  0  0  0  0  0  0  0
   68.2983    3.5299   -2.4629 H   0  0  0  0  0  0  0  0  0  0  0  0
   69.3086    1.1785    1.0015 H   0  0  0  0  0  0  0  0  0  0  0  0
   68.8686    3.3873   -0.0597 H   0  0  0  0  0  0  0  0  0  0  0  0
   73.9102   -2.3604    0.7058 H   0  0  0  0  0  0  0  0  0  0  0  0
   66.8219   -0.4351   -8.2077 H   0  0  0  0  0  0  0  0  0  0  0  0
   65.9065    0.3927   -9.5129 H   0  0  0  0  0  0  0  0  0  0  0  0
   67.7024    0.4297   -9.5129 H   0  0  0  0  0  0  0  0  0  0  0  0
   72.7388   -1.1667   -1.8006 H   0  0  0  0  0  0  0  0  0  0  0  0
   73.5854   -0.3794   -0.3857 H   0  0  0  0  0  0  0  0  0  0  0  0
   68.5724   -0.7679   -2.7780 H   0  0  0  0  0  0  0  0  0  0  0  0
   71.5488   -0.7467   -0.6635 H   0  0  0  0  0  0  0  0  0  0  0  0
   73.9438   -4.4310   -0.1633 H   0  0  0  0  0  0  0  0  0  0  0  0
   72.9354   -4.0657   -1.4590 H   0  0  0  0  0  0  0  0  0  0  0  0
   74.5310   -3.5335   -1.4590 H   0  0  0  0  0  0  0  0  0  0  0  0
   76.1580   -1.3376   -1.0397 H   0  0  0  0  0  0  0  0  0  0  0  0
  1 11  1  0
  1 16  1  0
  1 19  2  0
  2  3  2  0
  2 12  1  0
  3  4  1  0
  4 17  2  0
  4 20  1  0
  5 12  2  0
  5 17  1  0
  6  9  2  0
  6 15  1  0
  6 24  1  0
  7  8  1  0
  7 12  1  0
  7 15  2  0
  8 10  2  0
  9 10  1  0
 11 14  1  0
 11 18  1  0
 13 20  1  0
 14 23  1  0
 24 16  1  1
 21 24  2  0
 22 24  2  0
  2 25  1  0
  3 26  1  0
  5 27  1  0
  8 28  1  0
  9 29  1  0
 10 30  1  0
 11 31  1  1
 13 32  1  0
 13 33  1  0
 13 34  1  0
 14 35  1  0
 14 36  1  0
 15 37  1  0
 16 38  1  0
 18 39  1  0
 18 40  1  0
 18 41  1  0
 23 42  1  0
M  CHG  1  18   1
M  END
>  <filename_input>  (3) 
8HFN_XGC_docked.sdf

>  <pdb_id>  (3) 
8HFN_XGC

>  <pose_rank>  (3) 
2

>  <num_atoms_heavy>  (3) 
24

>  <num_torsions>  (3) 
6

>  <pose>  (3) 
[68.98998659593663, 0.09544902621774085, -0.8445166013063786, -0.2957255182150665, -0.048816182005975775, -0.9930929824100181, -9.061118240419576, -4.974403509485949, -8.630803430317963, -4.336566600906244, -14.77504449743763, 6.424473406807601]

>  <energy>  (3) 
-721.2622951181445

>  <inter_energy>  (3) 
-723.7841387985272

>  <intra_energy>  (3) 
1.7916014437628767

>  <rmsd>  (3) 
2.89847

>  <sdf_rank>  (3) 
0

$$$$

     RDKit          3D

 42 43  0  0  0  0  0  0  0  0999 V2000
   71.8206   -2.4313    0.1720 C   0  0  0  0  0  0  0  0  0  0  0  0
   68.6606   -0.0850   -5.4042 C   0  0  0  0  0  0  0  0  0  0  0  0
   68.3360   -0.2313   -6.7400 C   0  0  0  0  0  0  0  0  0  0  0  0
   67.7819    0.8771   -7.3851 C   0  0  0  0  0  0  0  0  0  0  0  0
   67.8680    2.1450   -5.5011 C   0  0  0  0  0  0  0  0  0  0  0  0
   69.2105    0.3576   -1.1316 C   0  0  0  0  0  0  0  0  0  0  0  0
   68.7622    1.2949   -3.3073 C   0  0  0  0  0  0  0  0  0  0  0  0
   68.8684    2.5684   -2.7468 C   0  0  0  0  0  0  0  0  0  0  0  0
   69.2867    1.6246   -0.5739 C   0  0  0  0  0  0  0  0  0  0  0  0
   69.1196    2.7282   -1.3943 C   0  0  0  0  0  0  0  0  0  0  0  0
   73.2571   -2.5208   -0.3139 C   0  0  2  0  0  0  0  0  0  0  0  0
   68.4348    1.1217   -4.7456 C   0  0  0  0  0  0  0  0  0  0  0  0
   66.1863    1.0543   -9.1257 C   0  0  0  0  0  0  0  0  0  0  0  0
   73.3733   -2.1688   -1.7923 C   0  0  0  0  0  0  0  0  0  0  0  0
   68.9378    0.1813   -2.4793 C   0  0  0  0  0  0  0  0  0  0  0  0
   71.1542   -1.3297   -0.2735 N   0  0  0  0  0  0  0  0  0  0  0  0
   67.5400    2.0386   -6.7981 N   0  0  0  0  0  0  0  0  0  0  0  0
   73.8212   -3.8506   -0.0179 N   0  0  0  0  0  0  0  0  0  0  0  0
   71.3262   -3.2996    0.8822 O   0  0  0  0  0  0  0  0  0  0  0  0
   67.5079    0.7400   -8.6966 O   0  0  0  0  0  0  0  0  0  0  0  0
   69.1979   -0.7362    1.2193 O   0  0  0  0  0  0  0  0  0  0  0  0
   68.9334   -2.1876   -0.7615 O   0  0  0  0  0  0  0  0  0  0  0  0
   74.5634   -3.1995   -2.6901 S   0  0  0  0  0  0  0  0  0  0  0  0
   69.5435   -1.0555   -0.1318 S   0  0  1  0  0  0  0  0  0  0  0  0
   69.1017   -0.9302   -4.8555 H   0  0  0  0  0  0  0  0  0  0  0  0
   68.5066   -1.1790   -7.2718 H   0  0  0  0  0  0  0  0  0  0  0  0
   67.6760    3.1056   -5.0008 H   0  0  0  0  0  0  0  0  0  0  0  0
   68.7512    3.4555   -3.3866 H   0  0  0  0  0  0  0  0  0  0  0  0
   69.4766    1.7514    0.5021 H   0  0  0  0  0  0  0  0  0  0  0  0
   69.1871    3.7399   -0.9678 H   0  0  0  0  0  0  0  0  0  0  0  0
   73.8509   -1.7744    0.2341 H   0  0  0  0  0  0  0  0  0  0  0  0
   65.5423    1.2075   -8.2471 H   0  0  0  0  0  0  0  0  0  0  0  0
   66.2059    1.9729   -9.7306 H   0  0  0  0  0  0  0  0  0  0  0  0
   65.7903    0.2253   -9.7306 H   0  0  0  0  0  0  0  0  0  0  0  0
   72.3845   -2.2925   -2.2582 H   0  0  0  0  0  0  0  0  0  0  0  0
   73.7353   -1.1318   -1.8502 H   0  0  0  0  0  0  0  0  0  0  0  0
   68.8596   -0.8333   -2.8970 H   0  0  0  0  0  0  0  0  0  0  0  0
   71.7131   -0.6026   -0.7423 H   0  0  0  0  0  0  0  0  0  0  0  0
   73.8764   -3.9807    1.0023 H   0  0  0  0  0  0  0  0  0  0  0  0
   73.2164   -4.5784   -0.4247 H   0  0  0  0  0  0  0  0  0  0  0  0
   74.7648   -3.9215   -0.4247 H   0  0  0  0  0  0  0  0  0  0  0  0
   75.3470   -3.8781   -1.7944 H   0  0  0  0  0  0  0  0  0  0  0  0
  1 11  1  0
  1 16  1  0
  1 19  2  0
  2  3  2  0
  2 12  1  0
  3  4  1  0
  4 17  2  0
  4 20  1  0
  5 12  2  0
  5 17  1  0
  6  9  2  0
  6 15  1  0
  6 24  1  0
  7  8  1  0
  7 12  1  0
  7 15  2  0
  8 10  2  0
  9 10  1  0
 11 14  1  0
 11 18  1  0
 13 20  1  0
 14 23  1  0
 24 16  1  1
 21 24  2  0
 22 24  2  0
  2 25  1  0
  3 26  1  0
  5 27  1  0
  8 28  1  0
  9 29  1  0
 10 30  1  0
 11 31  1  1
 13 32  1  0
 13 33  1  0
 13 34  1  0
 14 35  1  0
 14 36  1  0
 15 37  1  0
 16 38  1  0
 18 39  1  0
 18 40  1  0
 18 41  1  0
 23 42  1  0
M  CHG  1  18   1
M  END
>  <filename_input>  (4) 
8HFN_XGC_docked.sdf

>  <pdb_id>  (4) 
8HFN_XGC

>  <pose_rank>  (4) 
3

>  <num_atoms_heavy>  (4) 
24

>  <num_torsions>  (4) 
6

>  <pose>  (4) 
[69.21053919821473, 0.3576063137447564, -1.131601331844499, 1.9773929270281614, 0.8461190145385142, 4.6714418898066485, 5.290299634470466, 1.5204854216917685, 3.798722281046321, -4.133640160472083, 3.318134991542032, 0.5603920907916341]

>  <energy>  (4) 
-671.0504603596885

>  <inter_energy>  (4) 
-669.3527182144582

>  <intra_energy>  (4) 
2.6251145672088807

>  <rmsd>  (4) 
2.77641

>  <sdf_rank>  (4) 
0

$$$$

     RDKit          3D

 42 43  0  0  0  0  0  0  0  0999 V2000
   71.7358   -2.5935   -0.9735 C   0  0  0  0  0  0  0  0  0  0  0  0
   66.9694    1.9529   -3.5264 C   0  0  0  0  0  0  0  0  0  0  0  0
   66.4495    2.1357   -4.7943 C   0  0  0  0  0  0  0  0  0  0  0  0
   67.2356    1.7168   -5.8705 C   0  0  0  0  0  0  0  0  0  0  0  0
   68.9104    1.0126   -4.5054 C   0  0  0  0  0  0  0  0  0  0  0  0
   70.6260    0.4815   -0.5774 C   0  0  0  0  0  0  0  0  0  0  0  0
   68.8086    1.1861   -1.9965 C   0  0  0  0  0  0  0  0  0  0  0  0
   68.0640    1.4691   -0.8507 C   0  0  0  0  0  0  0  0  0  0  0  0
   69.8719    0.7373    0.5575 C   0  0  0  0  0  0  0  0  0  0  0  0
   68.5892    1.2387    0.4099 C   0  0  0  0  0  0  0  0  0  0  0  0
   71.8576   -3.6524   -2.0559 C   0  0  2  0  0  0  0  0  0  0  0  0
   68.2255    1.3773   -3.3491 C   0  0  0  0  0  0  0  0  0  0  0  0
   66.7758    0.7394   -7.9778 C   0  0  0  0  0  0  0  0  0  0  0  0
   73.0161   -4.6043   -1.7830 C   0  0  0  0  0  0  0  0  0  0  0  0
   70.1063    0.6861   -1.8462 C   0  0  0  0  0  0  0  0  0  0  0  0
   72.4161   -1.4448   -1.2450 N   0  0  0  0  0  0  0  0  0  0  0  0
   68.4375    1.1753   -5.7508 N   0  0  0  0  0  0  0  0  0  0  0  0
   71.9626   -3.0232   -3.3853 N   0  0  0  0  0  0  0  0  0  0  0  0
   71.0600   -2.7767    0.0328 O   0  0  0  0  0  0  0  0  0  0  0  0
   66.7044    1.8592   -7.1000 O   0  0  0  0  0  0  0  0  0  0  0  0
   73.1392    0.9676   -0.9903 O   0  0  0  0  0  0  0  0  0  0  0  0
   72.5067   -0.4165    0.9550 O   0  0  0  0  0  0  0  0  0  0  0  0
   73.6270   -5.4450   -3.2678 S   0  0  0  0  0  0  0  0  0  0  0  0
   72.3022   -0.0376   -0.4107 S   0  0  1  0  0  0  0  0  0  0  0  0
   66.3850    2.2654   -2.6484 H   0  0  0  0  0  0  0  0  0  0  0  0
   65.4602    2.5910   -4.9490 H   0  0  0  0  0  0  0  0  0  0  0  0
   69.9065    0.5605   -4.3902 H   0  0  0  0  0  0  0  0  0  0  0  0
   67.0484    1.8799   -0.9499 H   0  0  0  0  0  0  0  0  0  0  0  0
   70.2854    0.5452    1.5585 H   0  0  0  0  0  0  0  0  0  0  0  0
   67.9825    1.4557    1.3014 H   0  0  0  0  0  0  0  0  0  0  0  0
   70.9414   -4.2612   -2.0438 H   0  0  0  0  0  0  0  0  0  0  0  0
   66.8349   -0.1865   -7.3869 H   0  0  0  0  0  0  0  0  0  0  0  0
   65.8776    0.7129   -8.6121 H   0  0  0  0  0  0  0  0  0  0  0  0
   67.6702    0.8273   -8.6121 H   0  0  0  0  0  0  0  0  0  0  0  0
   73.8438   -4.0283   -1.3437 H   0  0  0  0  0  0  0  0  0  0  0  0
   72.6414   -5.3826   -1.1018 H   0  0  0  0  0  0  0  0  0  0  0  0
   70.7138    0.4556   -2.7338 H   0  0  0  0  0  0  0  0  0  0  0  0
   73.0611   -1.4618   -2.0479 H   0  0  0  0  0  0  0  0  0  0  0  0
   72.1311   -2.0132   -3.2747 H   0  0  0  0  0  0  0  0  0  0  0  0
   72.7445   -3.4469   -3.9049 H   0  0  0  0  0  0  0  0  0  0  0  0
   71.0854   -3.1701   -3.9049 H   0  0  0  0  0  0  0  0  0  0  0  0
   74.4031   -6.5129   -2.9013 H   0  0  0  0  0  0  0  0  0  0  0  0
  1 11  1  0
  1 16  1  0
  1 19  2  0
  2  3  2  0
  2 12  1  0
  3  4  1  0
  4 17  2  0
  4 20  1  0
  5 12  2  0
  5 17  1  0
  6  9  2  0
  6 15  1  0
  6 24  1  0
  7  8  1  0
  7 12  1  0
  7 15  2  0
  8 10  2  0
  9 10  1  0
 11 14  1  0
 11 18  1  0
 13 20  1  0
 14 23  1  0
 24 16  1  6
 21 24  2  0
 22 24  2  0
  2 25  1  0
  3 26  1  0
  5 27  1  0
  8 28  1  0
  9 29  1  0
 10 30  1  0
 11 31  1  6
 13 32  1  0
 13 33  1  0
 13 34  1  0
 14 35  1  0
 14 36  1  0
 15 37  1  0
 16 38  1  0
 18 39  1  0
 18 40  1  0
 18 41  1  0
 23 42  1  0
M  CHG  1  18   1
M  END
>  <filename_input>  (5) 
8HFN_XGC_docked.sdf

>  <pdb_id>  (5) 
8HFN_XGC

>  <pose_rank>  (5) 
4

>  <num_atoms_heavy>  (5) 
24

>  <num_torsions>  (5) 
6

>  <pose>  (5) 
[70.62596960931782, 0.4815113901691556, -0.5774485854895602, -5.563879025294683, -1.0928496577844402, -2.297655676474587, -10.020952413214664, 3.2844143396887318, 7.549340712292219, -2.2485061573971117, -6.87902757179056, 0.2802129305765216]

>  <energy>  (5) 
-777.1865918738207

>  <inter_energy>  (5) 
-779.4958664949073

>  <intra_energy>  (5) 
8.992107297283702

>  <rmsd>  (5) 
2.72367

>  <sdf_rank>  (5) 
0

$$$$

     RDKit          3D

 42 43  0  0  0  0  0  0  0  0999 V2000
   70.5612   -2.1416    0.8888 C   0  0  0  0  0  0  0  0  0  0  0  0
   67.9010    1.8117   -4.6145 C   0  0  0  0  0  0  0  0  0  0  0  0
   67.0827    2.4026   -5.5592 C   0  0  0  0  0  0  0  0  0  0  0  0
   66.7969    1.6596   -6.7072 C   0  0  0  0  0  0  0  0  0  0  0  0
   68.0579   -0.0969   -6.0083 C   0  0  0  0  0  0  0  0  0  0  0  0
   70.2716   -0.1985   -1.6149 C   0  0  0  0  0  0  0  0  0  0  0  0
   69.3046   -0.1152   -3.8219 C   0  0  0  0  0  0  0  0  0  0  0  0
   70.0798   -1.2221   -4.1701 C   0  0  0  0  0  0  0  0  0  0  0  0
   71.0608   -1.2802   -1.9744 C   0  0  0  0  0  0  0  0  0  0  0  0
   70.9527   -1.7906   -3.2575 C   0  0  0  0  0  0  0  0  0  0  0  0
   70.2306   -3.0765    2.0396 C   0  0  2  0  0  0  0  0  0  0  0  0
   68.4117    0.5315   -4.8171 C   0  0  0  0  0  0  0  0  0  0  0  0
   65.0899    1.3601   -8.3207 C   0  0  0  0  0  0  0  0  0  0  0  0
   71.3940   -3.1986    3.0165 C   0  0  0  0  0  0  0  0  0  0  0  0
   69.4096    0.3951   -2.5238 C   0  0  0  0  0  0  0  0  0  0  0  0
   69.9703   -0.9178    0.9838 N   0  0  0  0  0  0  0  0  0  0  0  0
   67.2672    0.4459   -6.9471 N   0  0  0  0  0  0  0  0  0  0  0  0
   69.7983   -4.3910    1.5302 N   0  0  0  0  0  0  0  0  0  0  0  0
   71.3138   -2.4787   -0.0183 O   0  0  0  0  0  0  0  0  0  0  0  0
   65.9650    2.2252   -7.6029 O   0  0  0  0  0  0  0  0  0  0  0  0
   71.6136    0.8893    0.3188 O   0  0  0  0  0  0  0  0  0  0  0  0
   69.1717    1.2487    0.2257 O   0  0  0  0  0  0  0  0  0  0  0  0
   71.1526   -4.4828    4.2725 S   0  0  0  0  0  0  0  0  0  0  0  0
   70.3016    0.3872    0.0474 S   0  0  1  0  0  0  0  0  0  0  0  0
   68.1515    2.3581   -3.6932 H   0  0  0  0  0  0  0  0  0  0  0  0
   66.6746    3.4136   -5.4133 H   0  0  0  0  0  0  0  0  0  0  0  0
   68.4534   -1.1067   -6.1924 H   0  0  0  0  0  0  0  0  0  0  0  0
   69.9966   -1.6478   -5.1809 H   0  0  0  0  0  0  0  0  0  0  0  0
   71.7612   -1.7258   -1.2526 H   0  0  0  0  0  0  0  0  0  0  0  0
   71.5653   -2.6548   -3.5541 H   0  0  0  0  0  0  0  0  0  0  0  0
   69.3917   -2.6422    2.6032 H   0  0  0  0  0  0  0  0  0  0  0  0
   64.4930    0.7701   -7.6097 H   0  0  0  0  0  0  0  0  0  0  0  0
   64.4191    1.9599   -8.9534 H   0  0  0  0  0  0  0  0  0  0  0  0
   65.6819    0.6824   -8.9534 H   0  0  0  0  0  0  0  0  0  0  0  0
   72.3040   -3.4364    2.4460 H   0  0  0  0  0  0  0  0  0  0  0  0
   71.4729   -2.2382    3.5470 H   0  0  0  0  0  0  0  0  0  0  0  0
   68.8087    1.2666   -2.2244 H   0  0  0  0  0  0  0  0  0  0  0  0
   69.2494   -0.8015    1.7102 H   0  0  0  0  0  0  0  0  0  0  0  0
   69.5929   -5.0158    2.3228 H   0  0  0  0  0  0  0  0  0  0  0  0
   68.9512   -4.2749    0.9559 H   0  0  0  0  0  0  0  0  0  0  0  0
   70.5490   -4.8004    0.9559 H   0  0  0  0  0  0  0  0  0  0  0  0
   71.2572   -3.9266    5.5202 H   0  0  0  0  0  0  0  0  0  0  0  0
  1 11  1  0
  1 16  1  0
  1 19  2  0
  2  3  2  0
  2 12  1  0
  3  4  1  0
  4 17  2  0
  4 20  1  0
  5 12  2  0
  5 17  1  0
  6  9  2  0
  6 15  1  0
  6 24  1  0
  7  8  1  0
  7 12  1  0
  7 15  2  0
  8 10  2  0
  9 10  1  0
 11 14  1  0
 11 18  1  0
 13 20  1  0
 14 23  1  0
 24 16  1  1
 21 24  2  0
 22 24  2  0
  2 25  1  0
  3 26  1  0
  5 27  1  0
  8 28  1  0
  9 29  1  0
 10 30  1  0
 11 31  1  1
 13 32  1  0
 13 33  1  0
 13 34  1  0
 14 35  1  0
 14 36  1  0
 15 37  1  0
 16 38  1  0
 18 39  1  0
 18 40  1  0
 18 41  1  0
 23 42  1  0
M  CHG  1  18   1
M  END
>  <filename_input>  (6) 
8HFN_XGC_docked.sdf

>  <pdb_id>  (6) 
8HFN_XGC

>  <pose_rank>  (6) 
5

>  <num_atoms_heavy>  (6) 
24

>  <num_torsions>  (6) 
6

>  <pose>  (6) 
[70.27164662907786, -0.19852918153822327, -1.614870846117443, -1.980440910499725, 0.6935402170006644, -2.9282199925332018, -0.4040975443788029, 3.045607625866319, -8.140025755059572, -6.6036705899211725, 2.2583614895334376, 0.03500198196819347]

>  <energy>  (6) 
-635.5336751470627

>  <inter_energy>  (6) 
-711.8338737814911

>  <intra_energy>  (6) 
81.79201637237095

>  <rmsd>  (6) 
2.49367

>  <sdf_rank>  (6) 
0

$$$$

     RDKit          3D

 42 43  0  0  0  0  0  0  0  0999 V2000
   71.7437   -1.6069    0.7452 C   0  0  0  0  0  0  0  0  0  0  0  0
   67.2749    2.1553   -4.0885 C   0  0  0  0  0  0  0  0  0  0  0  0
   66.8210    2.1242   -5.3940 C   0  0  0  0  0  0  0  0  0  0  0  0
   67.5253    1.3199   -6.2933 C   0  0  0  0  0  0  0  0  0  0  0  0
   69.0066    0.6599   -4.7013 C   0  0  0  0  0  0  0  0  0  0  0  0
   70.6788    1.0791   -0.7230 C   0  0  0  0  0  0  0  0  0  0  0  0
   68.9024    1.4439   -2.3119 C   0  0  0  0  0  0  0  0  0  0  0  0
   68.0704    1.8072   -1.2521 C   0  0  0  0  0  0  0  0  0  0  0  0
   69.8400    1.4132    0.3292 C   0  0  0  0  0  0  0  0  0  0  0  0
   68.5341    1.7832    0.0527 C   0  0  0  0  0  0  0  0  0  0  0  0
   72.1245   -2.5416    1.8806 C   0  0  2  0  0  0  0  0  0  0  0  0
   68.3896    1.4127   -3.7054 C   0  0  0  0  0  0  0  0  0  0  0  0
   66.4223    0.0505   -7.9604 C   0  0  0  0  0  0  0  0  0  0  0  0
   72.5647   -3.9054    1.3620 C   0  0  0  0  0  0  0  0  0  0  0  0
   70.2229    1.0770   -2.0321 C   0  0  0  0  0  0  0  0  0  0  0  0
   72.3804   -0.4031    0.7833 N   0  0  0  0  0  0  0  0  0  0  0  0
   68.5944    0.6063   -5.9774 N   0  0  0  0  0  0  0  0  0  0  0  0
   71.0208   -2.6513    2.8522 N   0  0  0  0  0  0  0  0  0  0  0  0
   70.9487   -1.9425   -0.1255 O   0  0  0  0  0  0  0  0  0  0  0  0
   67.0517    1.2618   -7.5528 O   0  0  0  0  0  0  0  0  0  0  0  0
   72.9550    0.2057   -1.6057 O   0  0  0  0  0  0  0  0  0  0  0  0
   72.9548    1.8862    0.2044 O   0  0  0  0  0  0  0  0  0  0  0  0
   74.0256   -3.8355    0.2916 S   0  0  0  0  0  0  0  0  0  0  0  0
   72.3765    0.7268   -0.4053 S   0  0  1  0  0  0  0  0  0  0  0  0
   66.7504    2.7728   -3.3445 H   0  0  0  0  0  0  0  0  0  0  0  0
   65.9438    2.7074   -5.7108 H   0  0  0  0  0  0  0  0  0  0  0  0
   69.8918    0.0691   -4.4232 H   0  0  0  0  0  0  0  0  0  0  0  0
   67.0344    2.1160   -1.4554 H   0  0  0  0  0  0  0  0  0  0  0  0
   70.2054    1.3848    1.3663 H   0  0  0  0  0  0  0  0  0  0  0  0
   67.8598    2.0604    0.8763 H   0  0  0  0  0  0  0  0  0  0  0  0
   72.9907   -2.1099    2.4034 H   0  0  0  0  0  0  0  0  0  0  0  0
   66.1235   -0.5245   -7.0715 H   0  0  0  0  0  0  0  0  0  0  0  0
   65.5317    0.2845   -8.5621 H   0  0  0  0  0  0  0  0  0  0  0  0
   67.1257   -0.5437   -8.5621 H   0  0  0  0  0  0  0  0  0  0  0  0
   72.7957   -4.5478    2.2246 H   0  0  0  0  0  0  0  0  0  0  0  0
   71.7379   -4.3029    0.7551 H   0  0  0  0  0  0  0  0  0  0  0  0
   70.8989    0.7870   -2.8500 H   0  0  0  0  0  0  0  0  0  0  0  0
   72.9130   -0.1823    1.6368 H   0  0  0  0  0  0  0  0  0  0  0  0
   71.4006   -2.6135    3.8089 H   0  0  0  0  0  0  0  0  0  0  0  0
   70.3623   -1.8716    2.7132 H   0  0  0  0  0  0  0  0  0  0  0  0
   70.5286   -3.5453    2.7132 H   0  0  0  0  0  0  0  0  0  0  0  0
   75.1557   -3.7814    1.0642 H   0  0  0  0  0  0  0  0  0  0  0  0
  1 11  1  0
  1 16  1  0
  1 19  2  0
  2  3  2  0
  2 12  1  0
  3  4  1  0
  4 17  2  0
  4 20  1  0
  5 12  2  0
  5 17  1  0
  6  9  2  0
  6 15  1  0
  6 24  1  0
  7  8  1  0
  7 12  1  0
  7 15  2  0
  8 10  2  0
  9 10  1  0
 11 14  1  0
 11 18  1  0
 13 20  1  0
 14 23  1  0
 24 16  1  1
 21 24  2  0
 22 24  2  0
  2 25  1  0
  3 26  1  0
  5 27  1  0
  8 28  1  0
  9 29  1  0
 10 30  1  0
 11 31  1  1
 13 32  1  0
 13 33  1  0
 13 34  1  0
 14 35  1  0
 14 36  1  0
 15 37  1  0
 16 38  1  0
 18 39  1  0
 18 40  1  0
 18 41  1  0
 23 42  1  0
M  CHG  1  18   1
M  END
>  <filename_input>  (7) 
8HFN_XGC_docked.sdf

>  <pdb_id>  (7) 
8HFN_XGC

>  <pose_rank>  (7) 
6

>  <num_atoms_heavy>  (7) 
24

>  <num_torsions>  (7) 
6

>  <pose>  (7) 
[70.67875113870771, 1.079118110955964, -0.7229591026801134, 0.017477076385163614, -0.01607924649820912, 0.14382558183211627, -3.4405534907866366, -2.5769497823590277, -18.857206535538463, -0.19311736812413152, -4.428734492620859, -2.18707873438214]

>  <energy>  (7) 
-797.0435576991082

>  <inter_energy>  (7) 
-807.8719901886897

>  <intra_energy>  (7) 
9.5305165656065

>  <rmsd>  (7) 
1.56559

>  <sdf_rank>  (7) 
0

$$$$

     RDKit          3D

 42 43  0  0  0  0  0  0  0  0999 V2000
   73.4041   -0.5943   -0.4851 C   0  0  0  0  0  0  0  0  0  0  0  0
   67.7244    1.5002   -2.6272 C   0  0  0  0  0  0  0  0  0  0  0  0
   67.3679    2.1670   -3.7846 C   0  0  0  0  0  0  0  0  0  0  0  0
   67.8828    1.6750   -4.9865 C   0  0  0  0  0  0  0  0  0  0  0  0
   69.0160    0.0081   -3.9370 C   0  0  0  0  0  0  0  0  0  0  0  0
   70.4421   -1.8608   -0.2983 C   0  0  0  0  0  0  0  0  0  0  0  0
   68.9715   -0.3314   -1.4435 C   0  0  0  0  0  0  0  0  0  0  0  0
   68.2272   -0.2155   -0.2688 C   0  0  0  0  0  0  0  0  0  0  0  0
   69.6828   -1.7644    0.8577 C   0  0  0  0  0  0  0  0  0  0  0  0
   68.5764   -0.9311    0.8644 C   0  0  0  0  0  0  0  0  0  0  0  0
   74.6749   -0.0343   -1.1009 C   0  0  2  0  0  0  0  0  0  0  0  0
   68.5642    0.3898   -2.6763 C   0  0  0  0  0  0  0  0  0  0  0  0
   67.2785    1.5010   -7.2693 C   0  0  0  0  0  0  0  0  0  0  0  0
   74.3911    1.1974   -1.9526 C   0  0  0  0  0  0  0  0  0  0  0  0
   70.0925   -1.1680   -1.4470 C   0  0  0  0  0  0  0  0  0  0  0  0
   73.0825   -1.8440   -0.9221 N   0  0  0  0  0  0  0  0  0  0  0  0
   68.6913    0.6312   -5.0804 N   0  0  0  0  0  0  0  0  0  0  0  0
   75.3847   -1.0789   -1.8618 N   0  0  0  0  0  0  0  0  0  0  0  0
   72.7593    0.0362    0.3453 O   0  0  0  0  0  0  0  0  0  0  0  0
   67.4969    2.3041   -6.1131 O   0  0  0  0  0  0  0  0  0  0  0  0
   72.2263   -3.1564    1.0659 O   0  0  0  0  0  0  0  0  0  0  0  0
   71.7712   -3.8625   -1.2567 O   0  0  0  0  0  0  0  0  0  0  0  0
   72.6252    1.4878   -2.2390 S   0  0  0  0  0  0  0  0  0  0  0  0
   71.9231   -2.8167   -0.2904 S   0  0  1  0  0  0  0  0  0  0  0  0
   67.3410    1.8501   -1.6574 H   0  0  0  0  0  0  0  0  0  0  0  0
   66.7076    3.0465   -3.7602 H   0  0  0  0  0  0  0  0  0  0  0  0
   69.6844   -0.8633   -3.9999 H   0  0  0  0  0  0  0  0  0  0  0  0
   67.3531    0.4518   -0.2425 H   0  0  0  0  0  0  0  0  0  0  0  0
   69.9546   -2.3401    1.7548 H   0  0  0  0  0  0  0  0  0  0  0  0
   67.9701   -0.8368    1.7773 H   0  0  0  0  0  0  0  0  0  0  0  0
   75.3350    0.2939   -0.2845 H   0  0  0  0  0  0  0  0  0  0  0  0
   67.0015    0.4820   -6.9610 H   0  0  0  0  0  0  0  0  0  0  0  0
   66.4660    1.9360   -7.8699 H   0  0  0  0  0  0  0  0  0  0  0  0
   68.1994    1.4647   -7.8699 H   0  0  0  0  0  0  0  0  0  0  0  0
   74.8103    2.0773   -1.4426 H   0  0  0  0  0  0  0  0  0  0  0  0
   74.8539    1.0245   -2.9354 H   0  0  0  0  0  0  0  0  0  0  0  0
   70.6961   -1.2760   -2.3602 H   0  0  0  0  0  0  0  0  0  0  0  0
   73.6163   -2.2115   -1.7226 H   0  0  0  0  0  0  0  0  0  0  0  0
   75.8317   -1.7366   -1.2071 H   0  0  0  0  0  0  0  0  0  0  0  0
   74.7136   -1.5876   -2.4549 H   0  0  0  0  0  0  0  0  0  0  0  0
   76.1048   -0.6423   -2.4549 H   0  0  0  0  0  0  0  0  0  0  0  0
   71.9788    1.5941   -1.0358 H   0  0  0  0  0  0  0  0  0  0  0  0
  1 11  1  0
  1 16  1  0
  1 19  2  0
  2  3  2  0
  2 12  1  0
  3  4  1  0
  4 17  2  0
  4 20  1  0
  5 12  2  0
  5 17  1  0
  6  9  2  0
  6 15  1  0
  6 24  1  0
  7  8  1  0
  7 12  1  0
  7 15  2  0
  8 10  2  0
  9 10  1  0
 11 14  1  0
 11 18  1  0
 13 20  1  0
 14 23  1  0
 24 16  1  6
 21 24  2  0
 22 24  2  0
  2 25  1  0
  3 26  1  0
  5 27  1  0
  8 28  1  0
  9 29  1  0
 10 30  1  0
 11 31  1  1
 13 32  1  0
 13 33  1  0
 13 34  1  0
 14 35  1  0
 14 36  1  0
 15 37  1  0
 16 38  1  0
 18 39  1  0
 18 40  1  0
 18 41  1  0
 23 42  1  0
M  CHG  1  18   1
M  END
>  <filename_input>  (8) 
8HFN_XGC_docked.sdf

>  <pdb_id>  (8) 
8HFN_XGC

>  <pose_rank>  (8) 
7

>  <num_atoms_heavy>  (8) 
24

>  <num_torsions>  (8) 
6

>  <pose>  (8) 
[70.44208137806521, -1.8607691865602811, -0.29826708491807585, -5.336673972153194, 0.5068267354344999, 2.1805778794693342, -3.479180262282633, 3.0942551740393083, 15.674023852220401, -6.506251564135897, -0.18629638542732735, 2.851744545756481]

>  <energy>  (8) 
-681.9814404011701

>  <inter_energy>  (8) 
-714.426538119374

>  <intra_energy>  (8) 
30.30439557005402

>  <rmsd>  (8) 
3.72066

>  <sdf_rank>  (8) 
0

$$$$

     RDKit          3D

 42 43  0  0  0  0  0  0  0  0999 V2000
   67.8904    1.1961   -5.3668 C   0  0  0  0  0  0  0  0  0  0  0  0
   73.0381   -2.6201   -1.0575 C   0  0  0  0  0  0  0  0  0  0  0  0
   74.0323   -3.5242   -1.3821 C   0  0  0  0  0  0  0  0  0  0  0  0
   73.7136   -4.5113   -2.3179 C   0  0  0  0  0  0  0  0  0  0  0  0
   71.5879   -3.7436   -2.5557 C   0  0  0  0  0  0  0  0  0  0  0  0
   69.3967    0.2176   -1.7939 C   0  0  0  0  0  0  0  0  0  0  0  0
   70.6920   -1.7550   -1.2997 C   0  0  0  0  0  0  0  0  0  0  0  0
   69.9736   -1.8918   -0.1112 C   0  0  0  0  0  0  0  0  0  0  0  0
   68.7055    0.0935   -0.5985 C   0  0  0  0  0  0  0  0  0  0  0  0
   68.9981   -0.9723    0.2365 C   0  0  0  0  0  0  0  0  0  0  0  0
   68.0270    0.4145   -6.6622 C   0  0  2  0  0  0  0  0  0  0  0  0
   71.7783   -2.7069   -1.6457 C   0  0  0  0  0  0  0  0  0  0  0  0
   74.7667   -6.6021   -1.9622 C   0  0  0  0  0  0  0  0  0  0  0  0
   66.6674    0.1013   -7.2756 C   0  0  0  0  0  0  0  0  0  0  0  0
   70.3910   -0.6822   -2.1453 C   0  0  0  0  0  0  0  0  0  0  0  0
   68.6867    0.7403   -4.3597 N   0  0  0  0  0  0  0  0  0  0  0  0
   72.5288   -4.6388   -2.8941 N   0  0  0  0  0  0  0  0  0  0  0  0
   68.8294   -0.8040   -6.4488 N   0  0  0  0  0  0  0  0  0  0  0  0
   67.1392    2.1604   -5.2732 O   0  0  0  0  0  0  0  0  0  0  0  0
   74.7000   -5.3621   -2.6603 O   0  0  0  0  0  0  0  0  0  0  0  0
   67.7596    2.1185   -2.4495 O   0  0  0  0  0  0  0  0  0  0  0  0
   70.1191    2.2931   -3.1586 O   0  0  0  0  0  0  0  0  0  0  0  0
   66.7473   -0.3160   -9.0375 S   0  0  0  0  0  0  0  0  0  0  0  0
   68.9543    1.4929   -2.9275 S   0  0  1  0  0  0  0  0  0  0  0  0
   73.2440   -1.8237   -0.3271 H   0  0  0  0  0  0  0  0  0  0  0  0
   75.0307   -3.4688   -0.9235 H   0  0  0  0  0  0  0  0  0  0  0  0
   70.5993   -3.8350   -3.0294 H   0  0  0  0  0  0  0  0  0  0  0  0
   70.1844   -2.7397    0.5571 H   0  0  0  0  0  0  0  0  0  0  0  0
   67.9375    0.8293   -0.3177 H   0  0  0  0  0  0  0  0  0  0  0  0
   68.4511   -1.0893    1.1836 H   0  0  0  0  0  0  0  0  0  0  0  0
   68.5610    1.0455   -7.3880 H   0  0  0  0  0  0  0  0  0  0  0  0
   74.7565   -6.4138   -0.8785 H   0  0  0  0  0  0  0  0  0  0  0  0
   73.9006   -7.2233   -2.2345 H   0  0  0  0  0  0  0  0  0  0  0  0
   75.6943   -7.1268   -2.2345 H   0  0  0  0  0  0  0  0  0  0  0  0
   66.2300   -0.7513   -6.7354 H   0  0  0  0  0  0  0  0  0  0  0  0
   66.0552    1.0107   -7.1861 H   0  0  0  0  0  0  0  0  0  0  0  0
   70.9426   -0.5526   -3.0881 H   0  0  0  0  0  0  0  0  0  0  0  0
   69.1644   -0.1595   -4.5118 H   0  0  0  0  0  0  0  0  0  0  0  0
   68.9389   -0.9704   -5.4382 H   0  0  0  0  0  0  0  0  0  0  0  0
   68.3525   -1.6090   -6.8795 H   0  0  0  0  0  0  0  0  0  0  0  0
   69.7572   -0.6840   -6.8795 H   0  0  0  0  0  0  0  0  0  0  0  0
   67.0033   -1.6545   -9.1786 H   0  0  0  0  0  0  0  0  0  0  0  0
  1 11  1  0
  1 16  1  0
  1 19  2  0
  2  3  2  0
  2 12  1  0
  3  4  1  0
  4 17  2  0
  4 20  1  0
  5 12  2  0
  5 17  1  0
  6  9  2  0
  6 15  1  0
  6 24  1  0
  7  8  1  0
  7 12  1  0
  7 15  2  0
  8 10  2  0
  9 10  1  0
 11 14  1  0
 11 18  1  0
 13 20  1  0
 14 23  1  0
 24 16  1  6
 21 24  2  0
 22 24  2  0
  2 25  1  0
  3 26  1  0
  5 27  1  0
  8 28  1  0
  9 29  1  0
 10 30  1  0
 11 31  1  6
 13 32  1  0
 13 33  1  0
 13 34  1  0
 14 35  1  0
 14 36  1  0
 15 37  1  0
 16 38  1  0
 18 39  1  0
 18 40  1  0
 18 41  1  0
 23 42  1  0
M  CHG  1  18   1
M  END
>  <filename_input>  (9) 
8HFN_XGC_docked.sdf

>  <pdb_id>  (9) 
8HFN_XGC

>  <pose_rank>  (9) 
8

>  <num_atoms_heavy>  (9) 
24

>  <num_torsions>  (9) 
6

>  <pose>  (9) 
[69.39670462744425, 0.2175648402054546, -1.7938601876095948, -1.1658234194881019, 0.356471576706172, 2.153935311695948, 1.0886816105763553, 0.9655686198042572, -3.1202102648835597, 1.5348554239405232, 0.1501318971045636, -0.45129166634143564]

>  <energy>  (9) 
-606.4858462474964

>  <inter_energy>  (9) 
-602.301178353622

>  <intra_energy>  (9) 
7.762461504295547

>  <rmsd>  (9) 
7.81724

>  <sdf_rank>  (9) 
0

$$$$

     RDKit          3D

 42 43  0  0  0  0  0  0  0  0999 V2000
   67.6587    0.9751   -6.0395 C   0  0  0  0  0  0  0  0  0  0  0  0
   69.6356   -1.6834    0.8859 C   0  0  0  0  0  0  0  0  0  0  0  0
   69.5935   -2.7038    1.8177 C   0  0  0  0  0  0  0  0  0  0  0  0
   70.7314   -3.5058    1.9346 C   0  0  0  0  0  0  0  0  0  0  0  0
   71.8330   -2.3565    0.3129 C   0  0  0  0  0  0  0  0  0  0  0  0
   69.7766    0.9237   -2.6302 C   0  0  0  0  0  0  0  0  0  0  0  0
   70.8309   -0.3999   -0.9128 C   0  0  0  0  0  0  0  0  0  0  0  0
   72.0239    0.2785   -1.1651 C   0  0  0  0  0  0  0  0  0  0  0  0
   70.9712    1.5748   -2.8967 C   0  0  0  0  0  0  0  0  0  0  0  0
   72.0923    1.2481   -2.1516 C   0  0  0  0  0  0  0  0  0  0  0  0
   68.0779    0.2121   -7.2844 C   0  0  2  0  0  0  0  0  0  0  0  0
   70.7708   -1.4806    0.1043 C   0  0  0  0  0  0  0  0  0  0  0  0
   70.7225   -4.0581    4.2372 C   0  0  0  0  0  0  0  0  0  0  0  0
   67.0575    0.3632   -8.4063 C   0  0  0  0  0  0  0  0  0  0  0  0
   69.6978   -0.0645   -1.6612 C   0  0  0  0  0  0  0  0  0  0  0  0
   68.3496    0.6260   -4.9184 N   0  0  0  0  0  0  0  0  0  0  0  0
   71.8271   -3.3573    1.2071 N   0  0  0  0  0  0  0  0  0  0  0  0
   68.3361   -1.2031   -6.9610 N   0  0  0  0  0  0  0  0  0  0  0  0
   66.7890    1.8383   -6.0762 O   0  0  0  0  0  0  0  0  0  0  0  0
   70.6982   -4.4706    2.8738 O   0  0  0  0  0  0  0  0  0  0  0  0
   67.1855    0.9930   -2.7007 O   0  0  0  0  0  0  0  0  0  0  0  0
   68.4475    2.7941   -3.8250 O   0  0  0  0  0  0  0  0  0  0  0  0
   67.4615   -0.6016   -9.8865 S   0  0  0  0  0  0  0  0  0  0  0  0
   68.3107    1.4112   -3.4792 S   0  0  1  0  0  0  0  0  0  0  0  0
   68.7637   -1.0246    0.7604 H   0  0  0  0  0  0  0  0  0  0  0  0
   68.7029   -2.8767    2.4398 H   0  0  0  0  0  0  0  0  0  0  0  0
   72.7384   -2.2187   -0.2964 H   0  0  0  0  0  0  0  0  0  0  0  0
   72.9204    0.0404   -0.5737 H   0  0  0  0  0  0  0  0  0  0  0  0
   71.0279    2.3380   -3.6868 H   0  0  0  0  0  0  0  0  0  0  0  0
   73.0448    1.7632   -2.3450 H   0  0  0  0  0  0  0  0  0  0  0  0
   69.0174    0.6492   -7.6535 H   0  0  0  0  0  0  0  0  0  0  0  0
   70.6705   -4.9427    4.8889 H   0  0  0  0  0  0  0  0  0  0  0  0
   71.6545   -3.5092    4.4377 H   0  0  0  0  0  0  0  0  0  0  0  0
   69.8613   -3.4037    4.4377 H   0  0  0  0  0  0  0  0  0  0  0  0
   66.0773    0.0326   -8.0322 H   0  0  0  0  0  0  0  0  0  0  0  0
   67.0561    1.4228   -8.7015 H   0  0  0  0  0  0  0  0  0  0  0  0
   68.7452   -0.5842   -1.4811 H   0  0  0  0  0  0  0  0  0  0  0  0
   68.9514   -0.2076   -4.9804 H   0  0  0  0  0  0  0  0  0  0  0  0
   68.3580   -1.3231   -5.9382 H   0  0  0  0  0  0  0  0  0  0  0  0
   67.5880   -1.7884   -7.3594 H   0  0  0  0  0  0  0  0  0  0  0  0
   69.2427   -1.4865   -7.3594 H   0  0  0  0  0  0  0  0  0  0  0  0
   67.9706   -1.8177   -9.5141 H   0  0  0  0  0  0  0  0  0  0  0  0
  1 11  1  0
  1 16  1  0
  1 19  2  0
  2  3  2  0
  2 12  1  0
  3  4  1  0
  4 17  2  0
  4 20  1  0
  5 12  2  0
  5 17  1  0
  6  9  2  0
  6 15  1  0
  6 24  1  0
  7  8  1  0
  7 12  1  0
  7 15  2  0
  8 10  2  0
  9 10  1  0
 11 14  1  0
 11 18  1  0
 13 20  1  0
 14 23  1  0
 24 16  1  6
 21 24  2  0
 22 24  2  0
  2 25  1  0
  3 26  1  0
  5 27  1  0
  8 28  1  0
  9 29  1  0
 10 30  1  0
 11 31  1  6
 13 32  1  0
 13 33  1  0
 13 34  1  0
 14 35  1  0
 14 36  1  0
 15 37  1  0
 16 38  1  0
 18 39  1  0
 18 40  1  0
 18 41  1  0
 23 42  1  0
M  CHG  1  18   1
M  END
>  <filename_input>  (10) 
8HFN_XGC_docked.sdf

>  <pdb_id>  (10) 
8HFN_XGC

>  <pose_rank>  (10) 
9

>  <num_atoms_heavy>  (10) 
24

>  <num_torsions>  (10) 
6

>  <pose>  (10) 
[69.77655704360744, 0.9237318957649475, -2.630178039313638, 0.4931775414062371, 2.584017916518576, 1.086387210283034, -1.3043433066889758, -1.9046740357367893, 0.5397569416842172, -3.9523826361702596, 0.6761665714047114, -0.058345546798569424]

>  <energy>  (10) 
-669.5164920599473

>  <inter_energy>  (10) 
-667.1898796948531

>  <intra_energy>  (10) 
5.94011316241585

>  <rmsd>  (10) 
8.35434

>  <sdf_rank>  (10) 
0

$$$$

     RDKit          3D

 42 43  0  0  0  0  0  0  0  0999 V2000
   68.1474    0.7155   -1.3691 C   0  0  0  0  0  0  0  0  0  0  0  0
   72.2975   -2.8899   -0.8963 C   0  0  0  0  0  0  0  0  0  0  0  0
   72.6054   -3.3825    0.3582 C   0  0  0  0  0  0  0  0  0  0  0  0
   71.5782   -3.3989    1.3049 C   0  0  0  0  0  0  0  0  0  0  0  0
   70.0850   -2.4933   -0.1493 C   0  0  0  0  0  0  0  0  0  0  0  0
   69.3861   -0.3783   -3.9018 C   0  0  0  0  0  0  0  0  0  0  0  0
   70.6667   -1.8840   -2.5211 C   0  0  0  0  0  0  0  0  0  0  0  0
   71.2460   -2.4044   -3.6790 C   0  0  0  0  0  0  0  0  0  0  0  0
   69.9433   -0.9183   -5.0507 C   0  0  0  0  0  0  0  0  0  0  0  0
   70.8806   -1.9308   -4.9281 C   0  0  0  0  0  0  0  0  0  0  0  0
   68.0501    1.4994   -0.0715 C   0  0  2  0  0  0  0  0  0  0  0  0
   71.0141   -2.4311   -1.1847 C   0  0  0  0  0  0  0  0  0  0  0  0
   70.7880   -4.3688    3.3153 C   0  0  0  0  0  0  0  0  0  0  0  0
   69.3974    1.5850    0.6356 C   0  0  0  0  0  0  0  0  0  0  0  0
   69.7253   -0.8569   -2.6458 C   0  0  0  0  0  0  0  0  0  0  0  0
   68.0029    1.4790   -2.4882 N   0  0  0  0  0  0  0  0  0  0  0  0
   70.3484   -2.9643    1.0795 N   0  0  0  0  0  0  0  0  0  0  0  0
   67.0055    0.9299    0.7995 N   0  0  0  0  0  0  0  0  0  0  0  0
   68.3601   -0.4918   -1.3773 O   0  0  0  0  0  0  0  0  0  0  0  0
   71.8747   -3.9195    2.5111 O   0  0  0  0  0  0  0  0  0  0  0  0
   68.9436    2.0229   -4.7744 O   0  0  0  0  0  0  0  0  0  0  0  0
   67.0227    0.4978   -4.4838 O   0  0  0  0  0  0  0  0  0  0  0  0
   70.8016    1.1606   -0.4289 S   0  0  0  0  0  0  0  0  0  0  0  0
   68.2867    0.9936   -4.0287 S   0  0  1  0  0  0  0  0  0  0  0  0
   73.0739   -2.8598   -1.6749 H   0  0  0  0  0  0  0  0  0  0  0  0
   73.6151   -3.7458    0.6003 H   0  0  0  0  0  0  0  0  0  0  0  0
   69.0661   -2.1319   -0.3524 H   0  0  0  0  0  0  0  0  0  0  0  0
   72.0014   -3.1999   -3.5988 H   0  0  0  0  0  0  0  0  0  0  0  0
   69.6460   -0.5488   -6.0432 H   0  0  0  0  0  0  0  0  0  0  0  0
   71.3385   -2.3622   -5.8304 H   0  0  0  0  0  0  0  0  0  0  0  0
   67.7577    2.5312   -0.3161 H   0  0  0  0  0  0  0  0  0  0  0  0
   71.0493   -4.2608    4.3784 H   0  0  0  0  0  0  0  0  0  0  0  0
   69.8946   -3.7663    3.0943 H   0  0  0  0  0  0  0  0  0  0  0  0
   70.5810   -5.4263    3.0943 H   0  0  0  0  0  0  0  0  0  0  0  0
   69.5349    2.6139    0.9993 H   0  0  0  0  0  0  0  0  0  0  0  0
   69.3796    0.8514    1.4551 H   0  0  0  0  0  0  0  0  0  0  0  0
   69.2546   -0.4294   -1.7481 H   0  0  0  0  0  0  0  0  0  0  0  0
   67.6865    2.4500   -2.3544 H   0  0  0  0  0  0  0  0  0  0  0  0
   67.2660    1.0719    1.7859 H   0  0  0  0  0  0  0  0  0  0  0  0
   66.1079    1.3983    0.6106 H   0  0  0  0  0  0  0  0  0  0  0  0
   66.9131   -0.0784    0.6106 H   0  0  0  0  0  0  0  0  0  0  0  0
   71.8815    0.8341    0.3483 H   0  0  0  0  0  0  0  0  0  0  0  0
  1 11  1  0
  1 16  1  0
  1 19  2  0
  2  3  2  0
  2 12  1  0
  3  4  1  0
  4 17  2  0
  4 20  1  0
  5 12  2  0
  5 17  1  0
  6  9  2  0
  6 15  1  0
  6 24  1  0
  7  8  1  0
  7 12  1  0
  7 15  2  0
  8 10  2  0
  9 10  1  0
 11 14  1  0
 11 18  1  0
 13 20  1  0
 14 23  1  0
 24 16  1  1
 21 24  2  0
 22 24  2  0
  2 25  1  0
  3 26  1  0
  5 27  1  0
  8 28  1  0
  9 29  1  0
 10 30  1  0
 11 31  1  6
 13 32  1  0
 13 33  1  0
 13 34  1  0
 14 35  1  0
 14 36  1  0
 15 37  1  0
 16 38  1  0
 18 39  1  0
 18 40  1  0
 18 41  1  0
 23 42  1  0
M  CHG  1  18   1
M  END
>  <filename_input>  (11) 
8HFN_XGC_docked.sdf

>  <pdb_id>  (11) 
8HFN_XGC

>  <pose_rank>  (11) 
10

>  <num_atoms_heavy>  (11) 
24

>  <num_torsions>  (11) 
6

>  <pose>  (11) 
[69.38613552650509, -0.3783208473787805, -3.901780626599208, -1.7693644735899747, -2.4561825539447018, 0.06260105312402167, 3.0515910582461996, 2.8156289103576984, -3.9226713878727013, -1.5582167401146152, 2.153610860932401, 3.306510696749264]

>  <energy>  (11) 
-346.21774782412956

>  <inter_energy>  (11) 
-567.6895008649884

>  <intra_energy>  (11) 
218.49394945559857

>  <rmsd>  (11) 
7.00125

>  <sdf_rank>  (11) 
0

$$$$

     RDKit          3D

 42 43  0  0  0  0  0  0  0  0999 V2000
   72.2483   -1.7453    0.6664 C   0  0  0  0  0  0  0  0  0  0  0  0
   73.7136   -3.2191   -7.1913 C   0  0  0  0  0  0  0  0  0  0  0  0
   73.6402   -3.0707   -8.5638 C   0  0  0  0  0  0  0  0  0  0  0  0
   72.7903   -3.9392   -9.2530 C   0  0  0  0  0  0  0  0  0  0  0  0
   72.1668   -5.0062   -7.3459 C   0  0  0  0  0  0  0  0  0  0  0  0
   73.2547   -3.4704   -2.8490 C   0  0  0  0  0  0  0  0  0  0  0  0
   73.0433   -4.3855   -5.0696 C   0  0  0  0  0  0  0  0  0  0  0  0
   73.0415   -5.6637   -4.5097 C   0  0  0  0  0  0  0  0  0  0  0  0
   73.2813   -4.7433   -2.3001 C   0  0  0  0  0  0  0  0  0  0  0  0
   73.1674   -5.8376   -3.1415 C   0  0  0  0  0  0  0  0  0  0  0  0
   71.2788   -2.3555    1.6641 C   0  0  2  0  0  0  0  0  0  0  0  0
   72.9675   -4.1996   -6.5412 C   0  0  0  0  0  0  0  0  0  0  0  0
   71.4082   -3.9383  -11.1758 C   0  0  0  0  0  0  0  0  0  0  0  0
   71.8166   -3.6573    2.2461 C   0  0  0  0  0  0  0  0  0  0  0  0
   73.1516   -3.2808   -4.2184 C   0  0  0  0  0  0  0  0  0  0  0  0
   72.4762   -2.5226   -0.4290 N   0  0  0  0  0  0  0  0  0  0  0  0
   72.0713   -4.8912   -8.6796 N   0  0  0  0  0  0  0  0  0  0  0  0
   69.9496   -2.5333    1.0510 N   0  0  0  0  0  0  0  0  0  0  0  0
   72.7474   -0.6403    0.8474 O   0  0  0  0  0  0  0  0  0  0  0  0
   72.6921   -3.7606  -10.5843 O   0  0  0  0  0  0  0  0  0  0  0  0
   74.6358   -1.7433   -1.4952 O   0  0  0  0  0  0  0  0  0  0  0  0
   72.4291   -1.0655   -2.3733 O   0  0  0  0  0  0  0  0  0  0  0  0
   70.9873   -4.1629    3.7763 S   0  0  0  0  0  0  0  0  0  0  0  0
   73.2723   -2.0635   -1.7873 S   0  0  1  0  0  0  0  0  0  0  0  0
   74.3679   -2.5559   -6.6064 H   0  0  0  0  0  0  0  0  0  0  0  0
   74.2256   -2.3024   -9.0903 H   0  0  0  0  0  0  0  0  0  0  0  0
   71.5722   -5.7907   -6.8550 H   0  0  0  0  0  0  0  0  0  0  0  0
   72.9389   -6.5431   -5.1625 H   0  0  0  0  0  0  0  0  0  0  0  0
   73.3910   -4.8817   -1.2144 H   0  0  0  0  0  0  0  0  0  0  0  0
   73.1769   -6.8534   -2.7195 H   0  0  0  0  0  0  0  0  0  0  0  0
   71.1694   -1.6565    2.5064 H   0  0  0  0  0  0  0  0  0  0  0  0
   70.6513   -4.0431  -10.3845 H   0  0  0  0  0  0  0  0  0  0  0  0
   71.1679   -3.0649  -11.7997 H   0  0  0  0  0  0  0  0  0  0  0  0
   71.4142   -4.8442  -11.7997 H   0  0  0  0  0  0  0  0  0  0  0  0
   71.6840   -4.4536    1.4989 H   0  0  0  0  0  0  0  0  0  0  0  0
   72.8752   -3.4882    2.4927 H   0  0  0  0  0  0  0  0  0  0  0  0
   73.1549   -2.2628   -4.6351 H   0  0  0  0  0  0  0  0  0  0  0  0
   72.1155   -3.4870   -0.4016 H   0  0  0  0  0  0  0  0  0  0  0  0
   69.2399   -2.6283    1.7914 H   0  0  0  0  0  0  0  0  0  0  0  0
   69.7287   -1.7144    0.4667 H   0  0  0  0  0  0  0  0  0  0  0  0
   69.9518   -3.3815    0.4667 H   0  0  0  0  0  0  0  0  0  0  0  0
   71.7094   -3.7226    4.8540 H   0  0  0  0  0  0  0  0  0  0  0  0
  1 11  1  0
  1 16  1  0
  1 19  2  0
  2  3  2  0
  2 12  1  0
  3  4  1  0
  4 17  2  0
  4 20  1  0
  5 12  2  0
  5 17  1  0
  6  9  2  0
  6 15  1  0
  6 24  1  0
  7  8  1  0
  7 12  1  0
  7 15  2  0
  8 10  2  0
  9 10  1  0
 11 14  1  0
 11 18  1  0
 13 20  1  0
 14 23  1  0
 24 16  1  1
 21 24  2  0
 22 24  2  0
  2 25  1  0
  3 26  1  0
  5 27  1  0
  8 28  1  0
  9 29  1  0
 10 30  1  0
 11 31  1  1
 13 32  1  0
 13 33  1  0
 13 34  1  0
 14 35  1  0
 14 36  1  0
 15 37  1  0
 16 38  1  0
 18 39  1  0
 18 40  1  0
 18 41  1  0
 23 42  1  0
M  CHG  1  18   1
M  END
>  <filename_input>  (12) 
8HFN_XGC_docked.sdf

>  <pdb_id>  (12) 
8HFN_XGC

>  <pose_rank>  (12) 
11

>  <num_atoms_heavy>  (12) 
24

>  <num_torsions>  (12) 
6

>  <pose>  (12) 
[73.25474610686153, -3.4704389425502677, -2.8490276023295333, -1.0276299539272455, 0.7242636634864962, -4.072530852140418, -0.007049167750739296, -3.169038707686759, -7.756339046142227, 1.9752225604730298, -1.1103400993755463, -0.4249203185576202]

>  <energy>  (12) 
-466.945237004026

>  <inter_energy>  (12) 
-466.13672412090114

>  <intra_energy>  (12) 
1.6972235212297657

>  <rmsd>  (12) 
6.14735

>  <sdf_rank>  (12) 
0

$$$$

     RDKit          3D

 42 43  0  0  0  0  0  0  0  0999 V2000
   71.5827   -2.2942    0.4777 C   0  0  0  0  0  0  0  0  0  0  0  0
   67.2471    2.0297   -4.2632 C   0  0  0  0  0  0  0  0  0  0  0  0
   66.7627    2.0397   -5.5580 C   0  0  0  0  0  0  0  0  0  0  0  0
   67.3942    1.2012   -6.4799 C   0  0  0  0  0  0  0  0  0  0  0  0
   68.8666    0.4342   -4.9281 C   0  0  0  0  0  0  0  0  0  0  0  0
   70.6090    0.6155   -0.9706 C   0  0  0  0  0  0  0  0  0  0  0  0
   68.8663    1.2005   -2.5307 C   0  0  0  0  0  0  0  0  0  0  0  0
   68.1211    1.7024   -1.4630 C   0  0  0  0  0  0  0  0  0  0  0  0
   69.8527    1.0894    0.0903 C   0  0  0  0  0  0  0  0  0  0  0  0
   68.6077    1.6388   -0.1679 C   0  0  0  0  0  0  0  0  0  0  0  0
   71.8224   -3.1449    1.7133 C   0  0  2  0  0  0  0  0  0  0  0  0
   68.3211    1.2149   -3.9121 C   0  0  0  0  0  0  0  0  0  0  0  0
   65.4842    1.3727   -7.8690 C   0  0  0  0  0  0  0  0  0  0  0  0
   70.5124   -3.5599    2.3725 C   0  0  0  0  0  0  0  0  0  0  0  0
   70.1264    0.6521   -2.2696 C   0  0  0  0  0  0  0  0  0  0  0  0
   72.1189   -1.0442    0.5548 N   0  0  0  0  0  0  0  0  0  0  0  0
   68.4230    0.4188   -6.1946 N   0  0  0  0  0  0  0  0  0  0  0  0
   72.7170   -2.4477    2.6554 N   0  0  0  0  0  0  0  0  0  0  0  0
   70.9769   -2.7290   -0.4954 O   0  0  0  0  0  0  0  0  0  0  0  0
   66.8894    1.1850   -7.7285 O   0  0  0  0  0  0  0  0  0  0  0  0
   72.7042   -0.6187   -1.8709 O   0  0  0  0  0  0  0  0  0  0  0  0
   73.0062    1.1109   -0.1337 O   0  0  0  0  0  0  0  0  0  0  0  0
   70.7320   -4.7014    3.7630 S   0  0  0  0  0  0  0  0  0  0  0  0
   72.2452    0.0277   -0.6798 S   0  0  1  0  0  0  0  0  0  0  0  0
   66.7796    2.6719   -3.5023 H   0  0  0  0  0  0  0  0  0  0  0  0
   65.9170    2.6798   -5.8497 H   0  0  0  0  0  0  0  0  0  0  0  0
   69.7188   -0.2137   -4.6754 H   0  0  0  0  0  0  0  0  0  0  0  0
   67.1359    2.1538   -1.6521 H   0  0  0  0  0  0  0  0  0  0  0  0
   70.2351    1.0301    1.1200 H   0  0  0  0  0  0  0  0  0  0  0  0
   68.0004    2.0278    0.6627 H   0  0  0  0  0  0  0  0  0  0  0  0
   72.3230   -4.0723    1.3984 H   0  0  0  0  0  0  0  0  0  0  0  0
   65.0211    1.4346   -6.8731 H   0  0  0  0  0  0  0  0  0  0  0  0
   65.2922    2.3045   -8.4212 H   0  0  0  0  0  0  0  0  0  0  0  0
   65.0543    0.5240   -8.4212 H   0  0  0  0  0  0  0  0  0  0  0  0
   70.0065   -2.6554    2.7412 H   0  0  0  0  0  0  0  0  0  0  0  0
   69.9203   -4.0883    1.6108 H   0  0  0  0  0  0  0  0  0  0  0  0
   70.7336    0.2504   -3.0941 H   0  0  0  0  0  0  0  0  0  0  0  0
   72.4777   -0.7449    1.4727 H   0  0  0  0  0  0  0  0  0  0  0  0
   72.4359   -2.6668    3.6218 H   0  0  0  0  0  0  0  0  0  0  0  0
   73.6870   -2.7581    2.5013 H   0  0  0  0  0  0  0  0  0  0  0  0
   72.6532   -1.4313    2.5013 H   0  0  0  0  0  0  0  0  0  0  0  0
   70.6002   -4.0159    4.9418 H   0  0  0  0  0  0  0  0  0  0  0  0
  1 11  1  0
  1 16  1  0
  1 19  2  0
  2  3  2  0
  2 12  1  0
  3  4  1  0
  4 17  2  0
  4 20  1  0
  5 12  2  0
  5 17  1  0
  6  9  2  0
  6 15  1  0
  6 24  1  0
  7  8  1  0
  7 12  1  0
  7 15  2  0
  8 10  2  0
  9 10  1  0
 11 14  1  0
 11 18  1  0
 13 20  1  0
 14 23  1  0
 24 16  1  1
 21 24  2  0
 22 24  2  0
  2 25  1  0
  3 26  1  0
  5 27  1  0
  8 28  1  0
  9 29  1  0
 10 30  1  0
 11 31  1  6
 13 32  1  0
 13 33  1  0
 13 34  1  0
 14 35  1  0
 14 36  1  0
 15 37  1  0
 16 38  1  0
 18 39  1  0
 18 40  1  0
 18 41  1  0
 23 42  1  0
M  CHG  1  18   1
M  END
>  <filename_input>  (13) 
8HFN_XGC_docked.sdf

>  <pdb_id>  (13) 
8HFN_XGC

>  <pose_rank>  (13) 
12

>  <num_atoms_heavy>  (13) 
24

>  <num_torsions>  (13) 
6

>  <pose>  (13) 
[70.60902834178651, 0.6155125519834219, -0.9705998774034003, 3.515819726015979, -5.102420228028053, 0.9895988595984951, 9.03799093378368, -1.2664514143239025, 12.540073397639347, -6.176634532664127, 6.157318340924582, 6.076961110880518]

>  <energy>  (13) 
-932.2251191880183

>  <inter_energy>  (13) 
-943.500242269398

>  <intra_energy>  (13) 
4.807648507034205

>  <rmsd>  (13) 
1.02369

>  <sdf_rank>  (13) 
0

$$$$

     RDKit          3D

 42 43  0  0  0  0  0  0  0  0999 V2000
   74.7498   -7.2232   -3.1950 C   0  0  0  0  0  0  0  0  0  0  0  0
   70.6254   -0.1651   -2.2166 C   0  0  0  0  0  0  0  0  0  0  0  0
   69.6628    0.8090   -2.4054 C   0  0  0  0  0  0  0  0  0  0  0  0
   68.6268    0.8693   -1.4700 C   0  0  0  0  0  0  0  0  0  0  0  0
   69.4591   -0.8810   -0.2834 C   0  0  0  0  0  0  0  0  0  0  0  0
   72.8985   -3.9267   -1.7669 C   0  0  0  0  0  0  0  0  0  0  0  0
   71.5630   -2.1047   -0.9243 C   0  0  0  0  0  0  0  0  0  0  0  0
   72.1012   -2.3362    0.3422 C   0  0  0  0  0  0  0  0  0  0  0  0
   73.4086   -4.1710   -0.5011 C   0  0  0  0  0  0  0  0  0  0  0  0
   73.0069   -3.3632    0.5499 C   0  0  0  0  0  0  0  0  0  0  0  0
   75.5814   -8.1739   -2.3511 C   0  0  2  0  0  0  0  0  0  0  0  0
   70.5477   -1.0417   -1.1367 C   0  0  0  0  0  0  0  0  0  0  0  0
   67.5123    2.7445   -0.5490 C   0  0  0  0  0  0  0  0  0  0  0  0
   76.2996   -7.4424   -1.2234 C   0  0  0  0  0  0  0  0  0  0  0  0
   71.9746   -2.9168   -1.9863 C   0  0  0  0  0  0  0  0  0  0  0  0
   74.2268   -6.1773   -2.4962 N   0  0  0  0  0  0  0  0  0  0  0  0
   68.5065    0.0520   -0.4359 N   0  0  0  0  0  0  0  0  0  0  0  0
   76.5178   -8.9341   -3.1993 N   0  0  0  0  0  0  0  0  0  0  0  0
   74.5994   -7.3956   -4.3994 O   0  0  0  0  0  0  0  0  0  0  0  0
   67.7165    1.8478   -1.6370 O   0  0  0  0  0  0  0  0  0  0  0  0
   72.3646   -5.2447   -3.9351 O   0  0  0  0  0  0  0  0  0  0  0  0
   74.5544   -4.1184   -3.7450 O   0  0  0  0  0  0  0  0  0  0  0  0
   76.9102   -8.5438    0.0801 S   0  0  0  0  0  0  0  0  0  0  0  0
   73.4902   -4.8609   -3.1396 S   0  0  1  0  0  0  0  0  0  0  0  0
   71.4615   -0.2489   -2.9265 H   0  0  0  0  0  0  0  0  0  0  0  0
   69.7104    1.5061   -3.2550 H   0  0  0  0  0  0  0  0  0  0  0  0
   69.3741   -1.5651    0.5738 H   0  0  0  0  0  0  0  0  0  0  0  0
   71.8027   -1.6957    1.1852 H   0  0  0  0  0  0  0  0  0  0  0  0
   74.1205   -4.9928   -0.3343 H   0  0  0  0  0  0  0  0  0  0  0  0
   73.4106   -3.5388    1.5579 H   0  0  0  0  0  0  0  0  0  0  0  0
   74.8998   -8.8938   -1.8744 H   0  0  0  0  0  0  0  0  0  0  0  0
   67.6356    2.2031    0.4005 H   0  0  0  0  0  0  0  0  0  0  0  0
   68.2475    3.5609   -0.6038 H   0  0  0  0  0  0  0  0  0  0  0  0
   66.4960    3.1620   -0.6038 H   0  0  0  0  0  0  0  0  0  0  0  0
   77.1562   -6.9001   -1.6503 H   0  0  0  0  0  0  0  0  0  0  0  0
   75.5671   -6.7663   -0.7585 H   0  0  0  0  0  0  0  0  0  0  0  0
   71.5655   -2.7543   -2.9944 H   0  0  0  0  0  0  0  0  0  0  0  0
   74.3007   -6.2168   -1.4696 H   0  0  0  0  0  0  0  0  0  0  0  0
   77.1695   -9.4632   -2.6025 H   0  0  0  0  0  0  0  0  0  0  0  0
   75.9889   -9.5880   -3.7940 H   0  0  0  0  0  0  0  0  0  0  0  0
   77.0490   -8.2821   -3.7940 H   0  0  0  0  0  0  0  0  0  0  0  0
   76.6136   -8.0088    1.3060 H   0  0  0  0  0  0  0  0  0  0  0  0
  1 11  1  0
  1 16  1  0
  1 19  2  0
  2  3  2  0
  2 12  1  0
  3  4  1  0
  4 17  2  0
  4 20  1  0
  5 12  2  0
  5 17  1  0
  6  9  2  0
  6 15  1  0
  6 24  1  0
  7  8  1  0
  7 12  1  0
  7 15  2  0
  8 10  2  0
  9 10  1  0
 11 14  1  0
 11 18  1  0
 13 20  1  0
 14 23  1  0
 24 16  1  1
 21 24  2  0
 22 24  2  0
  2 25  1  0
  3 26  1  0
  5 27  1  0
  8 28  1  0
  9 29  1  0
 10 30  1  0
 11 31  1  1
 13 32  1  0
 13 33  1  0
 13 34  1  0
 14 35  1  0
 14 36  1  0
 15 37  1  0
 16 38  1  0
 18 39  1  0
 18 40  1  0
 18 41  1  0
 23 42  1  0
M  CHG  1  18   1
M  END
>  <filename_input>  (14) 
8HFN_XGC_docked.sdf

>  <pdb_id>  (14) 
8HFN_XGC

>  <pose_rank>  (14) 
13

>  <num_atoms_heavy>  (14) 
24

>  <num_torsions>  (14) 
6

>  <pose>  (14) 
[72.89849577778455, -3.92671303164847, -1.7669017849467876, 0.5964104536892351, 0.9034744686610171, -0.5598539798109173, -1.480258242846393, -2.8489705809008354, 5.673175615601836, 1.8891085542987855, -2.772540928851107, -0.40225215776620615]

>  <energy>  (14) 
-441.00336490553957

>  <inter_energy>  (14) 
-439.17647658665305

>  <intra_energy>  (14) 
2.1859252550345207

>  <rmsd>  (14) 
6.2844

>  <sdf_rank>  (14) 
0

$$$$

     RDKit          3D

 42 43  0  0  0  0  0  0  0  0999 V2000
   74.0362   -6.6897   -6.1997 C   0  0  0  0  0  0  0  0  0  0  0  0
   70.5798   -0.4516   -2.1161 C   0  0  0  0  0  0  0  0  0  0  0  0
   69.5620    0.4593   -1.9027 C   0  0  0  0  0  0  0  0  0  0  0  0
   68.4549    0.0170   -1.1743 C   0  0  0  0  0  0  0  0  0  0  0  0
   69.3259   -2.0665   -0.9203 C   0  0  0  0  0  0  0  0  0  0  0  0
   72.9366   -4.0396   -3.3552 C   0  0  0  0  0  0  0  0  0  0  0  0
   71.5619   -2.7488   -1.8527 C   0  0  0  0  0  0  0  0  0  0  0  0
   72.1777   -3.3971   -0.7813 C   0  0  0  0  0  0  0  0  0  0  0  0
   73.5249   -4.7012   -2.2884 C   0  0  0  0  0  0  0  0  0  0  0  0
   73.1416   -4.3672   -0.9999 C   0  0  0  0  0  0  0  0  0  0  0  0
   74.4227   -8.1336   -5.9290 C   0  0  2  0  0  0  0  0  0  0  0  0
   70.4867   -1.7506   -1.6216 C   0  0  0  0  0  0  0  0  0  0  0  0
   67.3329    1.3758    0.4075 C   0  0  0  0  0  0  0  0  0  0  0  0
   75.1970   -8.2728   -4.6237 C   0  0  0  0  0  0  0  0  0  0  0  0
   71.9546   -3.0821   -3.1533 C   0  0  0  0  0  0  0  0  0  0  0  0
   73.7239   -5.9816   -5.0785 N   0  0  0  0  0  0  0  0  0  0  0  0
   68.3184   -1.2091   -0.6946 N   0  0  0  0  0  0  0  0  0  0  0  0
   75.1658   -8.6932   -7.0730 N   0  0  0  0  0  0  0  0  0  0  0  0
   74.0365   -6.2253   -7.3343 O   0  0  0  0  0  0  0  0  0  0  0  0
   67.4871    0.9224   -0.9343 O   0  0  0  0  0  0  0  0  0  0  0  0
   72.4770   -3.9397   -5.9052 O   0  0  0  0  0  0  0  0  0  0  0  0
   74.8149   -3.8105   -5.1192 O   0  0  0  0  0  0  0  0  0  0  0  0
   75.4970   -9.9936   -4.1402 S   0  0  0  0  0  0  0  0  0  0  0  0
   73.4981   -4.3595   -4.9952 S   0  0  1  0  0  0  0  0  0  0  0  0
   71.4724   -0.1475   -2.6824 H   0  0  0  0  0  0  0  0  0  0  0  0
   69.6212    1.4873   -2.2895 H   0  0  0  0  0  0  0  0  0  0  0  0
   69.2280   -3.0882   -0.5245 H   0  0  0  0  0  0  0  0  0  0  0  0
   71.8943   -3.1345    0.2486 H   0  0  0  0  0  0  0  0  0  0  0  0
   74.2835   -5.4786   -2.4623 H   0  0  0  0  0  0  0  0  0  0  0  0
   73.6067   -4.8767   -0.1432 H   0  0  0  0  0  0  0  0  0  0  0  0
   73.4989   -8.7187   -5.8099 H   0  0  0  0  0  0  0  0  0  0  0  0
   67.6076    0.5677    1.1014 H   0  0  0  0  0  0  0  0  0  0  0  0
   67.9864    2.2440    0.5785 H   0  0  0  0  0  0  0  0  0  0  0  0
   66.2857    1.6658    0.5785 H   0  0  0  0  0  0  0  0  0  0  0  0
   76.1682   -7.7695   -4.7397 H   0  0  0  0  0  0  0  0  0  0  0  0
   74.5825   -7.8173   -3.8331 H   0  0  0  0  0  0  0  0  0  0  0  0
   71.4848   -2.5850   -4.0147 H   0  0  0  0  0  0  0  0  0  0  0  0
   73.6200   -6.5140   -4.2028 H   0  0  0  0  0  0  0  0  0  0  0  0
   75.9407   -9.2767   -6.7268 H   0  0  0  0  0  0  0  0  0  0  0  0
   74.5320   -9.2687   -7.6457 H   0  0  0  0  0  0  0  0  0  0  0  0
   75.5438   -7.9251   -7.6457 H   0  0  0  0  0  0  0  0  0  0  0  0
   75.5134  -10.0878   -2.7736 H   0  0  0  0  0  0  0  0  0  0  0  0
  1 11  1  0
  1 16  1  0
  1 19  2  0
  2  3  2  0
  2 12  1  0
  3  4  1  0
  4 17  2  0
  4 20  1  0
  5 12  2  0
  5 17  1  0
  6  9  2  0
  6 15  1  0
  6 24  1  0
  7  8  1  0
  7 12  1  0
  7 15  2  0
  8 10  2  0
  9 10  1  0
 11 14  1  0
 11 18  1  0
 13 20  1  0
 14 23  1  0
 24 16  1  1
 21 24  2  0
 22 24  2  0
  2 25  1  0
  3 26  1  0
  5 27  1  0
  8 28  1  0
  9 29  1  0
 10 30  1  0
 11 31  1  1
 13 32  1  0
 13 33  1  0
 13 34  1  0
 14 35  1  0
 14 36  1  0
 15 37  1  0
 16 38  1  0
 18 39  1  0
 18 40  1  0
 18 41  1  0
 23 42  1  0
M  CHG  1  18   1
M  END
>  <filename_input>  (15) 
8HFN_XGC_docked.sdf

>  <pdb_id>  (15) 
8HFN_XGC

>  <pose_rank>  (15) 
14

>  <num_atoms_heavy>  (15) 
24

>  <num_torsions>  (15) 
6

>  <pose>  (15) 
[72.93656263554222, -4.039573473588122, -3.3552379727794936, 0.9003506956072014, 1.0750949686314022, -0.35032395088920176, -1.6756754396574036, -2.6103006308404657, 6.096855332001834, 1.8605596771625874, -2.82761308798413, -0.24513164202275586]

>  <energy>  (15) 
-408.8341759577544

>  <inter_energy>  (15) 
-404.632442929874

>  <intra_energy>  (15) 
2.480529490147878

>  <rmsd>  (15) 
7.29279

>  <sdf_rank>  (15) 
0

$$$$

     RDKit          3D

 42 43  0  0  0  0  0  0  0  0999 V2000
   74.4453   -7.1850   -4.9541 C   0  0  0  0  0  0  0  0  0  0  0  0
   70.0669   -0.8221   -2.8593 C   0  0  0  0  0  0  0  0  0  0  0  0
   69.1126    0.1771   -2.8124 C   0  0  0  0  0  0  0  0  0  0  0  0
   68.6995    0.6033   -1.5477 C   0  0  0  0  0  0  0  0  0  0  0  0
   70.0770   -0.8631   -0.4911 C   0  0  0  0  0  0  0  0  0  0  0  0
   72.4776   -4.4747   -2.6913 C   0  0  0  0  0  0  0  0  0  0  0  0
   71.5949   -2.4549   -1.7146 C   0  0  0  0  0  0  0  0  0  0  0  0
   72.5970   -2.5217   -0.7458 C   0  0  0  0  0  0  0  0  0  0  0  0
   73.4538   -4.5524   -1.7099 C   0  0  0  0  0  0  0  0  0  0  0  0
   73.5092   -3.5638   -0.7412 C   0  0  0  0  0  0  0  0  0  0  0  0
   75.9579   -7.3098   -5.0197 C   0  0  2  0  0  0  0  0  0  0  0  0
   70.5805   -1.3704   -1.6861 C   0  0  0  0  0  0  0  0  0  0  0  0
   68.2674    2.8877   -1.0984 C   0  0  0  0  0  0  0  0  0  0  0  0
   76.6370   -5.9464   -4.9686 C   0  0  0  0  0  0  0  0  0  0  0  0
   71.5440   -3.4501   -2.6963 C   0  0  0  0  0  0  0  0  0  0  0  0
   74.0077   -6.1999   -4.1211 N   0  0  0  0  0  0  0  0  0  0  0  0
   69.1512    0.1049   -0.4077 N   0  0  0  0  0  0  0  0  0  0  0  0
   76.3619   -8.0827   -6.2086 N   0  0  0  0  0  0  0  0  0  0  0  0
   73.7106   -7.9057   -5.6202 O   0  0  0  0  0  0  0  0  0  0  0  0
   67.8011    1.6061   -1.5102 O   0  0  0  0  0  0  0  0  0  0  0  0
   71.5747   -6.7108   -3.6442 O   0  0  0  0  0  0  0  0  0  0  0  0
   72.2492   -4.9380   -5.2261 O   0  0  0  0  0  0  0  0  0  0  0  0
   78.4136   -6.0355   -4.6217 S   0  0  0  0  0  0  0  0  0  0  0  0
   72.4666   -5.6514   -4.0038 S   0  0  1  0  0  0  0  0  0  0  0  0
   70.4243   -1.1879   -3.8331 H   0  0  0  0  0  0  0  0  0  0  0  0
   68.6967    0.6173   -3.7307 H   0  0  0  0  0  0  0  0  0  0  0  0
   70.4643   -1.2844    0.4484 H   0  0  0  0  0  0  0  0  0  0  0  0
   72.6632   -1.7378    0.0230 H   0  0  0  0  0  0  0  0  0  0  0  0
   74.1723   -5.3853   -1.7006 H   0  0  0  0  0  0  0  0  0  0  0  0
   74.2843   -3.6068    0.0381 H   0  0  0  0  0  0  0  0  0  0  0  0
   76.2946   -7.8618   -4.1297 H   0  0  0  0  0  0  0  0  0  0  0  0
   68.2849    2.9358    0.0005 H   0  0  0  0  0  0  0  0  0  0  0  0
   69.2827    3.0513   -1.4888 H   0  0  0  0  0  0  0  0  0  0  0  0
   67.5947    3.6655   -1.4888 H   0  0  0  0  0  0  0  0  0  0  0  0
   76.4965   -5.4510   -5.9407 H   0  0  0  0  0  0  0  0  0  0  0  0
   76.1741   -5.3854   -4.1434 H   0  0  0  0  0  0  0  0  0  0  0  0
   70.7641   -3.4196   -3.4713 H   0  0  0  0  0  0  0  0  0  0  0  0
   74.7089   -5.7591   -3.5088 H   0  0  0  0  0  0  0  0  0  0  0  0
   76.8187   -8.9566   -5.9110 H   0  0  0  0  0  0  0  0  0  0  0  0
   75.5293   -8.3053   -6.7726 H   0  0  0  0  0  0  0  0  0  0  0  0
   77.0199   -7.5262   -6.7726 H   0  0  0  0  0  0  0  0  0  0  0  0
   78.6144   -6.0455   -3.2665 H   0  0  0  0  0  0  0  0  0  0  0  0
  1 11  1  0
  1 16  1  0
  1 19  2  0
  2  3  2  0
  2 12  1  0
  3  4  1  0
  4 17  2  0
  4 20  1  0
  5 12  2  0
  5 17  1  0
  6  9  2  0
  6 15  1  0
  6 24  1  0
  7  8  1  0
  7 12  1  0
  7 15  2  0
  8 10  2  0
  9 10  1  0
 11 14  1  0
 11 18  1  0
 13 20  1  0
 14 23  1  0
 24 16  1  6
 21 24  2  0
 22 24  2  0
  2 25  1  0
  3 26  1  0
  5 27  1  0
  8 28  1  0
  9 29  1  0
 10 30  1  0
 11 31  1  1
 13 32  1  0
 13 33  1  0
 13 34  1  0
 14 35  1  0
 14 36  1  0
 15 37  1  0
 16 38  1  0
 18 39  1  0
 18 40  1  0
 18 41  1  0
 23 42  1  0
M  CHG  1  18   1
M  END
>  <filename_input>  (16) 
8HFN_XGC_docked.sdf

>  <pdb_id>  (16) 
8HFN_XGC

>  <pose_rank>  (16) 
15

>  <num_atoms_heavy>  (16) 
24

>  <num_torsions>  (16) 
6

>  <pose>  (16) 
[72.47764952371952, -4.474736371035658, -2.6913491840251673, 0.3473698856635361, 1.2201718755547877, -0.8013419572123399, -1.3058043727693, -2.5615695712345548, 4.947109763332922, 1.9009590432949894, -2.860624838177952, -0.3692346156875111]

>  <energy>  (16) 
-413.4804870342517

>  <inter_energy>  (16) 
-411.5030622723997

>  <intra_energy>  (16) 
2.0826694698721964

>  <rmsd>  (16) 
7.11312

>  <sdf_rank>  (16) 
0

$$$$

     RDKit          3D

 42 43  0  0  0  0  0  0  0  0999 V2000
   67.6571    0.6008   -5.1745 C   0  0  0  0  0  0  0  0  0  0  0  0
   72.6237   -2.3278   -9.8034 C   0  0  0  0  0  0  0  0  0  0  0  0
   74.0003   -2.3065   -9.6775 C   0  0  0  0  0  0  0  0  0  0  0  0
   74.5374   -2.7924   -8.4828 C   0  0  0  0  0  0  0  0  0  0  0  0
   72.4833   -3.2592   -7.6301 C   0  0  0  0  0  0  0  0  0  0  0  0
   68.1840   -1.9449   -8.2710 C   0  0  0  0  0  0  0  0  0  0  0  0
   70.3417   -2.8309   -8.8811 C   0  0  0  0  0  0  0  0  0  0  0  0
   69.6932   -3.7978   -9.6505 C   0  0  0  0  0  0  0  0  0  0  0  0
   67.5438   -2.9250   -9.0137 C   0  0  0  0  0  0  0  0  0  0  0  0
   68.3103   -3.8468   -9.7076 C   0  0  0  0  0  0  0  0  0  0  0  0
   68.4771    0.5603   -3.8964 C   0  0  2  0  0  0  0  0  0  0  0  0
   71.8229   -2.8134   -8.7721 C   0  0  0  0  0  0  0  0  0  0  0  0
   76.4911   -1.7896   -7.5972 C   0  0  0  0  0  0  0  0  0  0  0  0
   68.3186    1.8414   -3.0862 C   0  0  0  0  0  0  0  0  0  0  0  0
   69.5668   -1.8964   -8.1863 C   0  0  0  0  0  0  0  0  0  0  0  0
   68.0443   -0.3120   -6.1088 N   0  0  0  0  0  0  0  0  0  0  0  0
   73.8161   -3.2529   -7.4730 N   0  0  0  0  0  0  0  0  0  0  0  0
   69.8910    0.2703   -4.1981 N   0  0  0  0  0  0  0  0  0  0  0  0
   66.7219    1.3810   -5.3147 O   0  0  0  0  0  0  0  0  0  0  0  0
   75.8806   -2.8076   -8.3848 O   0  0  0  0  0  0  0  0  0  0  0  0
   67.1677    0.4388   -8.3617 O   0  0  0  0  0  0  0  0  0  0  0  0
   66.0152   -1.2877   -7.0234 O   0  0  0  0  0  0  0  0  0  0  0  0
   68.2739    1.5644   -1.2957 S   0  0  0  0  0  0  0  0  0  0  0  0
   67.2318   -0.6883   -7.4827 S   0  0  1  0  0  0  0  0  0  0  0  0
   72.1560   -1.9576  -10.7275 H   0  0  0  0  0  0  0  0  0  0  0  0
   74.6446   -1.9237  -10.4827 H   0  0  0  0  0  0  0  0  0  0  0  0
   71.8711   -3.6425   -6.8005 H   0  0  0  0  0  0  0  0  0  0  0  0
   70.2871   -4.5293  -10.2180 H   0  0  0  0  0  0  0  0  0  0  0  0
   66.4453   -2.9699   -9.0513 H   0  0  0  0  0  0  0  0  0  0  0  0
   67.8165   -4.6242  -10.3090 H   0  0  0  0  0  0  0  0  0  0  0  0
   68.0929   -0.2575   -3.2691 H   0  0  0  0  0  0  0  0  0  0  0  0
   76.3534   -2.0193   -6.5303 H   0  0  0  0  0  0  0  0  0  0  0  0
   77.5660   -1.7436   -7.8266 H   0  0  0  0  0  0  0  0  0  0  0  0
   76.0255   -0.8198   -7.8266 H   0  0  0  0  0  0  0  0  0  0  0  0
   69.1658    2.5048   -3.3148 H   0  0  0  0  0  0  0  0  0  0  0  0
   67.3527    2.2853   -3.3689 H   0  0  0  0  0  0  0  0  0  0  0  0
   70.0541   -1.1239   -7.5733 H   0  0  0  0  0  0  0  0  0  0  0  0
   68.9284   -0.8116   -5.9364 H   0  0  0  0  0  0  0  0  0  0  0  0
   70.4148    0.1628   -3.3178 H   0  0  0  0  0  0  0  0  0  0  0  0
   69.9538   -0.6011   -4.7437 H   0  0  0  0  0  0  0  0  0  0  0  0
   70.2918    1.0465   -4.7437 H   0  0  0  0  0  0  0  0  0  0  0  0
   68.4659    2.7543   -0.6445 H   0  0  0  0  0  0  0  0  0  0  0  0
  1 11  1  0
  1 16  1  0
  1 19  2  0
  2  3  2  0
  2 12  1  0
  3  4  1  0
  4 17  2  0
  4 20  1  0
  5 12  2  0
  5 17  1  0
  6  9  2  0
  6 15  1  0
  6 24  1  0
  7  8  1  0
  7 12  1  0
  7 15  2  0
  8 10  2  0
  9 10  1  0
 11 14  1  0
 11 18  1  0
 13 20  1  0
 14 23  1  0
 24 16  1  1
 21 24  2  0
 22 24  2  0
  2 25  1  0
  3 26  1  0
  5 27  1  0
  8 28  1  0
  9 29  1  0
 10 30  1  0
 11 31  1  1
 13 32  1  0
 13 33  1  0
 13 34  1  0
 14 35  1  0
 14 36  1  0
 15 37  1  0
 16 38  1  0
 18 39  1  0
 18 40  1  0
 18 41  1  0
 23 42  1  0
M  CHG  1  18   1
M  END
>  <filename_input>  (17) 
8HFN_XGC_docked.sdf

>  <pdb_id>  (17) 
8HFN_XGC

>  <pose_rank>  (17) 
16

>  <num_atoms_heavy>  (17) 
24

>  <num_torsions>  (17) 
6

>  <pose>  (17) 
[68.18399093310636, -1.9449298056236521, -8.2709762812412, 1.6377675275710188, 2.883774953301647, -2.206493725069926, -2.4981310048376804, 1.1098569622903085, -10.905282117454878, -4.288622172772082, 0.6206885675648349, -0.7710352670272165]

>  <energy>  (17) 
-374.53146268543776

>  <inter_energy>  (17) 
-362.1562178145232

>  <intra_energy>  (17) 
1.6724123757052096

>  <rmsd>  (17) 
8.63672

>  <sdf_rank>  (17) 
0

$$$$

     RDKit          3D

 42 43  0  0  0  0  0  0  0  0999 V2000
   72.2974   -3.2550   -0.0742 C   0  0  0  0  0  0  0  0  0  0  0  0
   67.8233    1.7768   -0.4268 C   0  0  0  0  0  0  0  0  0  0  0  0
   66.7260    1.8504    0.4110 C   0  0  0  0  0  0  0  0  0  0  0  0
   66.4865    0.7542    1.2433 C   0  0  0  0  0  0  0  0  0  0  0  0
   68.2867   -0.3776    0.4416 C   0  0  0  0  0  0  0  0  0  0  0  0
   72.0675   -0.2026   -1.7648 C   0  0  0  0  0  0  0  0  0  0  0  0
   69.8161    0.5440   -1.3322 C   0  0  0  0  0  0  0  0  0  0  0  0
   69.8088    1.1516   -2.5884 C   0  0  0  0  0  0  0  0  0  0  0  0
   72.0655    0.4270   -3.0000 C   0  0  0  0  0  0  0  0  0  0  0  0
   70.9247    1.0990   -3.4070 C   0  0  0  0  0  0  0  0  0  0  0  0
   72.1770   -3.9717    1.2598 C   0  0  2  0  0  0  0  0  0  0  0  0
   68.6415    0.6494   -0.4294 C   0  0  0  0  0  0  0  0  0  0  0  0
   65.6859    0.5934    3.4659 C   0  0  0  0  0  0  0  0  0  0  0  0
   71.6315   -3.0512    2.3451 C   0  0  0  0  0  0  0  0  0  0  0  0
   70.9663   -0.1401   -0.9251 C   0  0  0  0  0  0  0  0  0  0  0  0
   72.9580   -2.0655   -0.0048 N   0  0  0  0  0  0  0  0  0  0  0  0
   67.2295   -0.3409    1.2676 N   0  0  0  0  0  0  0  0  0  0  0  0
   73.4685   -4.5710    1.6432 N   0  0  0  0  0  0  0  0  0  0  0  0
   71.8500   -3.7393   -1.1076 O   0  0  0  0  0  0  0  0  0  0  0  0
   65.4407    0.8513    2.0865 O   0  0  0  0  0  0  0  0  0  0  0  0
   73.8261   -2.0053   -2.3819 O   0  0  0  0  0  0  0  0  0  0  0  0
   74.4358   -0.2764   -0.7267 O   0  0  0  0  0  0  0  0  0  0  0  0
   70.7384   -3.9280    3.6560 S   0  0  0  0  0  0  0  0  0  0  0  0
   73.4613   -1.1672   -1.2812 S   0  0  1  0  0  0  0  0  0  0  0  0
   68.0527    2.6173   -1.0983 H   0  0  0  0  0  0  0  0  0  0  0  0
   66.0701    2.7334    0.4217 H   0  0  0  0  0  0  0  0  0  0  0  0
   68.9155   -1.2801    0.4534 H   0  0  0  0  0  0  0  0  0  0  0  0
   68.9065    1.6783   -2.9324 H   0  0  0  0  0  0  0  0  0  0  0  0
   72.9551    0.3935   -3.6461 H   0  0  0  0  0  0  0  0  0  0  0  0
   70.9048    1.5950   -4.3886 H   0  0  0  0  0  0  0  0  0  0  0  0
   71.4487   -4.7880    1.1452 H   0  0  0  0  0  0  0  0  0  0  0  0
   65.0571    1.2549    4.0800 H   0  0  0  0  0  0  0  0  0  0  0  0
   65.4439   -0.4557    3.6915 H   0  0  0  0  0  0  0  0  0  0  0  0
   66.7459    0.7818    3.6915 H   0  0  0  0  0  0  0  0  0  0  0  0
   72.4750   -2.5111    2.7998 H   0  0  0  0  0  0  0  0  0  0  0  0
   70.9128   -2.3726    1.8623 H   0  0  0  0  0  0  0  0  0  0  0  0
   70.9970   -0.6280    0.0603 H   0  0  0  0  0  0  0  0  0  0  0  0
   73.1597   -1.6965    0.9355 H   0  0  0  0  0  0  0  0  0  0  0  0
   73.5402   -4.6043    2.6702 H   0  0  0  0  0  0  0  0  0  0  0  0
   73.5298   -5.5266    1.2636 H   0  0  0  0  0  0  0  0  0  0  0  0
   74.2378   -4.0008    1.2636 H   0  0  0  0  0  0  0  0  0  0  0  0
   71.1800   -3.4945    4.8782 H   0  0  0  0  0  0  0  0  0  0  0  0
  1 11  1  0
  1 16  1  0
  1 19  2  0
  2  3  2  0
  2 12  1  0
  3  4  1  0
  4 17  2  0
  4 20  1  0
  5 12  2  0
  5 17  1  0
  6  9  2  0
  6 15  1  0
  6 24  1  0
  7  8  1  0
  7 12  1  0
  7 15  2  0
  8 10  2  0
  9 10  1  0
 11 14  1  0
 11 18  1  0
 13 20  1  0
 14 23  1  0
 24 16  1  1
 21 24  2  0
 22 24  2  0
  2 25  1  0
  3 26  1  0
  5 27  1  0
  8 28  1  0
  9 29  1  0
 10 30  1  0
 11 31  1  6
 13 32  1  0
 13 33  1  0
 13 34  1  0
 14 35  1  0
 14 36  1  0
 15 37  1  0
 16 38  1  0
 18 39  1  0
 18 40  1  0
 18 41  1  0
 23 42  1  0
M  CHG  1  18   1
M  END
>  <filename_input>  (18) 
8HFN_XGC_docked.sdf

>  <pdb_id>  (18) 
8HFN_XGC

>  <pose_rank>  (18) 
17

>  <num_atoms_heavy>  (18) 
24

>  <num_torsions>  (18) 
6

>  <pose>  (18) 
[72.0675032499423, -0.20257123344131744, -1.7648361147229694, -7.70672804710938, 3.8005378621985146, -2.29307167007483, 1.8887897580196067, -2.918134003620903, 15.057973640135796, -12.264252107399045, 4.960139383989013, -0.5957174588359611]

>  <energy>  (18) 
-547.8692285522511

>  <inter_energy>  (18) 
-564.9922368477933

>  <intra_energy>  (18) 
9.701925176245199

>  <rmsd>  (18) 
4.66085

>  <sdf_rank>  (18) 
0

$$$$

     RDKit          3D

 42 43  0  0  0  0  0  0  0  0999 V2000
   75.0012   -2.5704   -1.7182 C   0  0  0  0  0  0  0  0  0  0  0  0
   68.2523    1.9366   -0.4095 C   0  0  0  0  0  0  0  0  0  0  0  0
   67.1758    1.8050    0.4478 C   0  0  0  0  0  0  0  0  0  0  0  0
   67.0546    0.5950    1.1355 C   0  0  0  0  0  0  0  0  0  0  0  0
   68.9236   -0.2606    0.1665 C   0  0  0  0  0  0  0  0  0  0  0  0
   72.6581    0.6854   -1.9839 C   0  0  0  0  0  0  0  0  0  0  0  0
   70.3193    1.0117   -1.4974 C   0  0  0  0  0  0  0  0  0  0  0  0
   70.1758    1.6195   -2.7452 C   0  0  0  0  0  0  0  0  0  0  0  0
   72.5164    1.3157   -3.2106 C   0  0  0  0  0  0  0  0  0  0  0  0
   71.2650    1.7756   -3.5863 C   0  0  0  0  0  0  0  0  0  0  0  0
   74.5232   -4.0020   -1.5450 C   0  0  2  0  0  0  0  0  0  0  0  0
   69.1647    0.8962   -0.5702 C   0  0  0  0  0  0  0  0  0  0  0  0
   65.8610   -0.7551    2.6716 C   0  0  0  0  0  0  0  0  0  0  0  0
   74.8346   -4.8506   -2.7721 C   0  0  0  0  0  0  0  0  0  0  0  0
   71.5821    0.5415   -1.1219 C   0  0  0  0  0  0  0  0  0  0  0  0
   74.0076   -1.6421   -1.6339 N   0  0  0  0  0  0  0  0  0  0  0  0
   67.8899   -0.4236    1.0067 N   0  0  0  0  0  0  0  0  0  0  0  0
   73.0889   -4.0306   -1.2045 N   0  0  0  0  0  0  0  0  0  0  0  0
   76.1848   -2.3040   -1.8941 O   0  0  0  0  0  0  0  0  0  0  0  0
   66.0274    0.4904    2.0003 O   0  0  0  0  0  0  0  0  0  0  0  0
   75.1888    0.4282   -2.4863 O   0  0  0  0  0  0  0  0  0  0  0  0
   74.4222    0.2345   -0.1464 O   0  0  0  0  0  0  0  0  0  0  0  0
   74.7720   -6.6337   -2.4534 S   0  0  0  0  0  0  0  0  0  0  0  0
   74.2125   -0.0177   -1.5403 S   0  0  1  0  0  0  0  0  0  0  0  0
   68.3900    2.8727   -0.9706 H   0  0  0  0  0  0  0  0  0  0  0  0
   66.4465    2.6174    0.5825 H   0  0  0  0  0  0  0  0  0  0  0  0
   69.6282   -1.0975    0.0520 H   0  0  0  0  0  0  0  0  0  0  0  0
   69.1864    1.9788   -3.0645 H   0  0  0  0  0  0  0  0  0  0  0  0
   73.3834    1.4483   -3.8745 H   0  0  0  0  0  0  0  0  0  0  0  0
   71.1352    2.2689   -4.5609 H   0  0  0  0  0  0  0  0  0  0  0  0
   75.0768   -4.4484   -0.7058 H   0  0  0  0  0  0  0  0  0  0  0  0
   65.8829   -0.5913    3.7591 H   0  0  0  0  0  0  0  0  0  0  0  0
   64.8956   -1.1990    2.3870 H   0  0  0  0  0  0  0  0  0  0  0  0
   66.6761   -1.4368    2.3870 H   0  0  0  0  0  0  0  0  0  0  0  0
   74.1011   -4.6112   -3.5561 H   0  0  0  0  0  0  0  0  0  0  0  0
   75.8643   -4.6126   -3.0769 H   0  0  0  0  0  0  0  0  0  0  0  0
   71.7211    0.0581   -0.1436 H   0  0  0  0  0  0  0  0  0  0  0  0
   73.0391   -1.9925   -1.6284 H   0  0  0  0  0  0  0  0  0  0  0  0
   72.9792   -4.0328   -0.1804 H   0  0  0  0  0  0  0  0  0  0  0  0
   72.6260   -3.1987   -1.5976 H   0  0  0  0  0  0  0  0  0  0  0  0
   72.6596   -4.8804   -1.5976 H   0  0  0  0  0  0  0  0  0  0  0  0
   74.7642   -6.8561   -1.1016 H   0  0  0  0  0  0  0  0  0  0  0  0
  1 11  1  0
  1 16  1  0
  1 19  2  0
  2  3  2  0
  2 12  1  0
  3  4  1  0
  4 17  2  0
  4 20  1  0
  5 12  2  0
  5 17  1  0
  6  9  2  0
  6 15  1  0
  6 24  1  0
  7  8  1  0
  7 12  1  0
  7 15  2  0
  8 10  2  0
  9 10  1  0
 11 14  1  0
 11 18  1  0
 13 20  1  0
 14 23  1  0
 24 16  1  1
 21 24  2  0
 22 24  2  0
  2 25  1  0
  3 26  1  0
  5 27  1  0
  8 28  1  0
  9 29  1  0
 10 30  1  0
 11 31  1  1
 13 32  1  0
 13 33  1  0
 13 34  1  0
 14 35  1  0
 14 36  1  0
 15 37  1  0
 16 38  1  0
 18 39  1  0
 18 40  1  0
 18 41  1  0
 23 42  1  0
M  CHG  1  18   1
M  END
>  <filename_input>  (19) 
8HFN_XGC_docked.sdf

>  <pdb_id>  (19) 
8HFN_XGC

>  <pose_rank>  (19) 
18

>  <num_atoms_heavy>  (19) 
24

>  <num_torsions>  (19) 
6

>  <pose>  (19) 
[72.65807333637814, 0.6854205343233398, -1.9839106980796801, -8.038346383317055, 3.1325711017293343, -1.9670571423450942, 1.7396426456008924, -3.874839312915511, 16.057523222025807, -10.90921415334962, 6.177178164783204, -0.4270714520260119]

>  <energy>  (19) 
-420.74024760452437

>  <inter_energy>  (19) 
-413.07890364121033

>  <intra_energy>  (19) 
5.606716744161643

>  <rmsd>  (19) 
5.38128

>  <sdf_rank>  (19) 
0

$$$$

     RDKit          3D

 42 43  0  0  0  0  0  0  0  0999 V2000
   77.3107   -0.5913   -9.5140 C   0  0  0  0  0  0  0  0  0  0  0  0
   70.0038   -2.5072  -10.5431 C   0  0  0  0  0  0  0  0  0  0  0  0
   68.7658   -1.9860  -10.8701 C   0  0  0  0  0  0  0  0  0  0  0  0
   68.0612   -1.3352   -9.8543 C   0  0  0  0  0  0  0  0  0  0  0  0
   69.7021   -1.7193   -8.3298 C   0  0  0  0  0  0  0  0  0  0  0  0
   74.2025   -3.1606   -9.2481 C   0  0  0  0  0  0  0  0  0  0  0  0
   71.8300   -2.9481   -8.8752 C   0  0  0  0  0  0  0  0  0  0  0  0
   71.9438   -3.8619   -7.8268 C   0  0  0  0  0  0  0  0  0  0  0  0
   74.3055   -4.0896   -8.2242 C   0  0  0  0  0  0  0  0  0  0  0  0
   73.1670   -4.4304   -7.5126 C   0  0  0  0  0  0  0  0  0  0  0  0
   77.4714    0.6285   -8.6230 C   0  0  2  0  0  0  0  0  0  0  0  0
   70.5092   -2.3822   -9.2510 C   0  0  0  0  0  0  0  0  0  0  0  0
   65.9588   -0.5155   -9.1366 C   0  0  0  0  0  0  0  0  0  0  0  0
   77.2349    0.2881   -7.1563 C   0  0  0  0  0  0  0  0  0  0  0  0
   72.9815   -2.5995   -9.5887 C   0  0  0  0  0  0  0  0  0  0  0  0
   76.2454   -1.3761   -9.1898 N   0  0  0  0  0  0  0  0  0  0  0  0
   68.4964   -1.2017   -8.6114 N   0  0  0  0  0  0  0  0  0  0  0  0
   76.5973    1.7234   -9.0826 N   0  0  0  0  0  0  0  0  0  0  0  0
   78.0740   -0.8111  -10.4479 O   0  0  0  0  0  0  0  0  0  0  0  0
   66.8752   -0.7933  -10.1915 O   0  0  0  0  0  0  0  0  0  0  0  0
   76.5849   -3.7089  -10.1122 O   0  0  0  0  0  0  0  0  0  0  0  0
   75.2525   -2.0122  -11.3147 O   0  0  0  0  0  0  0  0  0  0  0  0
   76.1041    1.4320   -6.3212 S   0  0  0  0  0  0  0  0  0  0  0  0
   75.6577   -2.6196  -10.0829 S   0  0  1  0  0  0  0  0  0  0  0  0
   70.5960   -3.0261  -11.3112 H   0  0  0  0  0  0  0  0  0  0  0  0
   68.3535   -2.0795  -11.8856 H   0  0  0  0  0  0  0  0  0  0  0  0
   70.0784   -1.6128   -7.3017 H   0  0  0  0  0  0  0  0  0  0  0  0
   71.0519   -4.1338   -7.2432 H   0  0  0  0  0  0  0  0  0  0  0  0
   75.2751   -4.5485   -7.9809 H   0  0  0  0  0  0  0  0  0  0  0  0
   73.2350   -5.1588   -6.6911 H   0  0  0  0  0  0  0  0  0  0  0  0
   78.5126    0.9746   -8.7010 H   0  0  0  0  0  0  0  0  0  0  0  0
   66.4578   -0.6668   -8.1681 H   0  0  0  0  0  0  0  0  0  0  0  0
   65.6161    0.5269   -9.2137 H   0  0  0  0  0  0  0  0  0  0  0  0
   65.0949   -1.1921   -9.2137 H   0  0  0  0  0  0  0  0  0  0  0  0
   76.8107   -0.7252   -7.0982 H   0  0  0  0  0  0  0  0  0  0  0  0
   78.2065    0.3638   -6.6461 H   0  0  0  0  0  0  0  0  0  0  0  0
   72.9183   -1.8809  -10.4192 H   0  0  0  0  0  0  0  0  0  0  0  0
   75.7651   -1.1696   -8.3023 H   0  0  0  0  0  0  0  0  0  0  0  0
   76.2049    2.2149   -8.2669 H   0  0  0  0  0  0  0  0  0  0  0  0
   77.1454    2.3847   -9.6510 H   0  0  0  0  0  0  0  0  0  0  0  0
   75.8309    1.3353   -9.6510 H   0  0  0  0  0  0  0  0  0  0  0  0
   76.2376    1.2970   -4.9644 H   0  0  0  0  0  0  0  0  0  0  0  0
  1 11  1  0
  1 16  1  0
  1 19  2  0
  2  3  2  0
  2 12  1  0
  3  4  1  0
  4 17  2  0
  4 20  1  0
  5 12  2  0
  5 17  1  0
  6  9  2  0
  6 15  1  0
  6 24  1  0
  7  8  1  0
  7 12  1  0
  7 15  2  0
  8 10  2  0
  9 10  1  0
 11 14  1  0
 11 18  1  0
 13 20  1  0
 14 23  1  0
 24 16  1  1
 21 24  2  0
 22 24  2  0
  2 25  1  0
  3 26  1  0
  5 27  1  0
  8 28  1  0
  9 29  1  0
 10 30  1  0
 11 31  1  1
 13 32  1  0
 13 33  1  0
 13 34  1  0
 14 35  1  0
 14 36  1  0
 15 37  1  0
 16 38  1  0
 18 39  1  0
 18 40  1  0
 18 41  1  0
 23 42  1  0
M  CHG  1  18   1
M  END
>  <filename_input>  (20) 
8HFN_XGC_docked.sdf

>  <pdb_id>  (20) 
8HFN_XGC

>  <pose_rank>  (20) 
19

>  <num_atoms_heavy>  (20) 
24

>  <num_torsions>  (20) 
6

>  <pose>  (20) 
[74.2025142185128, -3.160551903133468, -9.248062897085976, -3.9982954948342333, -2.4374072878218054, -1.7906706866905282, 0.2963553266382097, 2.105161680401931, -2.4194836959461092, 2.061432765734148, -1.4677883047043727, 0.7338395613001422]

>  <energy>  (20) 
-213.4020398530948

>  <inter_energy>  (20) 
-211.50547493085298

>  <intra_energy>  (20) 
1.8319343287122747

>  <rmsd>  (20) 
9.57803

>  <sdf_rank>  (20) 
0

$$$$

     RDKit          3D

 42 43  0  0  0  0  0  0  0  0999 V2000
   63.8764    0.3772   -9.1891 C   0  0  0  0  0  0  0  0  0  0  0  0
   60.5988    5.4017   -7.5192 C   0  0  0  0  0  0  0  0  0  0  0  0
   60.5740    6.5985   -6.8277 C   0  0  0  0  0  0  0  0  0  0  0  0
   60.2431    7.7456   -7.5533 C   0  0  0  0  0  0  0  0  0  0  0  0
   60.0023    6.5768   -9.4873 C   0  0  0  0  0  0  0  0  0  0  0  0
   60.8113    1.7259   -9.7633 C   0  0  0  0  0  0  0  0  0  0  0  0
   60.3430    4.0881   -9.6453 C   0  0  0  0  0  0  0  0  0  0  0  0
   60.0031    4.0572  -10.9983 C   0  0  0  0  0  0  0  0  0  0  0  0
   60.5001    1.7063  -11.1141 C   0  0  0  0  0  0  0  0  0  0  0  0
   60.0895    2.8805  -11.7235 C   0  0  0  0  0  0  0  0  0  0  0  0
   65.0964   -0.3885   -9.6719 C   0  0  2  0  0  0  0  0  0  0  0  0
   60.3070    5.3609   -8.8807 C   0  0  0  0  0  0  0  0  0  0  0  0
   59.9335   10.0926   -7.6045 C   0  0  0  0  0  0  0  0  0  0  0  0
   65.0641   -1.8424   -9.2159 C   0  0  0  0  0  0  0  0  0  0  0  0
   60.7510    2.9003   -9.0293 C   0  0  0  0  0  0  0  0  0  0  0  0
   62.6911   -0.2138   -9.5080 N   0  0  0  0  0  0  0  0  0  0  0  0
   59.9691    7.7565   -8.8482 N   0  0  0  0  0  0  0  0  0  0  0  0
   66.3344    0.2935   -9.2522 N   0  0  0  0  0  0  0  0  0  0  0  0
   63.9813    1.4193   -8.5521 O   0  0  0  0  0  0  0  0  0  0  0  0
   60.1796    8.9008   -6.8638 O   0  0  0  0  0  0  0  0  0  0  0  0
   61.2658    0.4808   -7.5347 O   0  0  0  0  0  0  0  0  0  0  0  0
   60.3325   -0.7947   -9.4327 O   0  0  0  0  0  0  0  0  0  0  0  0
   65.4004   -3.0259  -10.5467 S   0  0  0  0  0  0  0  0  0  0  0  0
   61.2149    0.2201   -8.9406 S   0  0  1  0  0  0  0  0  0  0  0  0
   60.8517    4.4718   -6.9887 H   0  0  0  0  0  0  0  0  0  0  0  0
   60.8046    6.6456   -5.7532 H   0  0  0  0  0  0  0  0  0  0  0  0
   59.7732    6.5699  -10.5631 H   0  0  0  0  0  0  0  0  0  0  0  0
   59.6627    4.9780  -11.4946 H   0  0  0  0  0  0  0  0  0  0  0  0
   60.5780    0.7739  -11.6924 H   0  0  0  0  0  0  0  0  0  0  0  0
   59.8298    2.8783  -12.7925 H   0  0  0  0  0  0  0  0  0  0  0  0
   65.0776   -0.4040  -10.7717 H   0  0  0  0  0  0  0  0  0  0  0  0
   59.7611   10.9274   -6.9092 H   0  0  0  0  0  0  0  0  0  0  0  0
   60.8043   10.3169   -8.2381 H   0  0  0  0  0  0  0  0  0  0  0  0
   59.0451    9.9537   -8.2381 H   0  0  0  0  0  0  0  0  0  0  0  0
   65.8219   -1.9776   -8.4301 H   0  0  0  0  0  0  0  0  0  0  0  0
   64.0456   -2.0448   -8.8529 H   0  0  0  0  0  0  0  0  0  0  0  0
   61.0237    2.8982   -7.9636 H   0  0  0  0  0  0  0  0  0  0  0  0
   62.7252   -1.0057  -10.1658 H   0  0  0  0  0  0  0  0  0  0  0  0
   66.3806    0.3189   -8.2236 H   0  0  0  0  0  0  0  0  0  0  0  0
   67.1496   -0.2176   -9.6200 H   0  0  0  0  0  0  0  0  0  0  0  0
   66.3380    1.2556   -9.6200 H   0  0  0  0  0  0  0  0  0  0  0  0
   65.7443   -4.2364  -10.0052 H   0  0  0  0  0  0  0  0  0  0  0  0
  1 11  1  0
  1 16  1  0
  1 19  2  0
  2  3  2  0
  2 12  1  0
  3  4  1  0
  4 17  2  0
  4 20  1  0
  5 12  2  0
  5 17  1  0
  6  9  2  0
  6 15  1  0
  6 24  1  0
  7  8  1  0
  7 12  1  0
  7 15  2  0
  8 10  2  0
  9 10  1  0
 11 14  1  0
 11 18  1  0
 13 20  1  0
 14 23  1  0
 24 16  1  6
 21 24  2  0
 22 24  2  0
  2 25  1  0
  3 26  1  0
  5 27  1  0
  8 28  1  0
  9 29  1  0
 10 30  1  0
 11 31  1  6
 13 32  1  0
 13 33  1  0
 13 34  1  0
 14 35  1  0
 14 36  1  0
 15 37  1  0
 16 38  1  0
 18 39  1  0
 18 40  1  0
 18 41  1  0
 23 42  1  0
M  CHG  1  18   1
M  END
>  <filename_input>  (21) 
8HFN_XGC_docked.sdf

>  <pdb_id>  (21) 
8HFN_XGC

>  <pose_rank>  (21) 
20

>  <num_atoms_heavy>  (21) 
24

>  <num_torsions>  (21) 
6

>  <pose>  (21) 
[60.81132183070231, 1.7258927715678356, -9.763275581864455, -2.285019056114087, 2.5262368359013045, -0.9408349282293016, -0.7355769102315446, 2.375672034403461, 0.3253986353965177, 0.11534646079400745, -3.1300333334483725, -0.9610175348634479]

>  <energy>  (21) 
-183.2722870731127

>  <inter_energy>  (21) 
-182.22098540029828

>  <intra_energy>  (21) 
4.839026869151267

>  <rmsd>  (21) 
12.5201

>  <sdf_rank>  (21) 
0

$$$$

     RDKit          3D

 42 43  0  0  0  0  0  0  0  0999 V2000
   78.5326    2.7106   -8.7485 C   0  0  0  0  0  0  0  0  0  0  0  0
   73.6080   -4.1393   -7.9309 C   0  0  0  0  0  0  0  0  0  0  0  0
   73.0386   -5.2052   -7.2594 C   0  0  0  0  0  0  0  0  0  0  0  0
   73.5836   -5.5386   -6.0170 C   0  0  0  0  0  0  0  0  0  0  0  0
   75.1346   -3.8822   -6.1383 C   0  0  0  0  0  0  0  0  0  0  0  0
   76.8435   -0.4387   -8.1183 C   0  0  0  0  0  0  0  0  0  0  0  0
   75.3159   -2.3038   -8.0904 C   0  0  0  0  0  0  0  0  0  0  0  0
   74.9396   -1.9758   -9.3935 C   0  0  0  0  0  0  0  0  0  0  0  0
   76.4454   -0.0998   -9.4024 C   0  0  0  0  0  0  0  0  0  0  0  0
   75.4936   -0.8813  -10.0363 C   0  0  0  0  0  0  0  0  0  0  0  0
   79.4701    3.3681   -9.7467 C   0  0  2  0  0  0  0  0  0  0  0  0
   74.6801   -3.4419   -7.3787 C   0  0  0  0  0  0  0  0  0  0  0  0
   71.5912   -6.4624   -5.1315 C   0  0  0  0  0  0  0  0  0  0  0  0
   79.2842    4.8804   -9.7804 C   0  0  0  0  0  0  0  0  0  0  0  0
   76.2822   -1.5180   -7.4537 C   0  0  0  0  0  0  0  0  0  0  0  0
   78.8024    1.3948   -8.5206 N   0  0  0  0  0  0  0  0  0  0  0  0
   74.6071   -4.9122   -5.4586 N   0  0  0  0  0  0  0  0  0  0  0  0
   79.3106    2.7632  -11.0819 N   0  0  0  0  0  0  0  0  0  0  0  0
   77.6366    3.3394   -8.1965 O   0  0  0  0  0  0  0  0  0  0  0  0
   72.9962   -6.5507   -5.3502 O   0  0  0  0  0  0  0  0  0  0  0  0
   77.5653    1.2792   -6.3152 O   0  0  0  0  0  0  0  0  0  0  0  0
   79.1760   -0.4635   -6.9998 O   0  0  0  0  0  0  0  0  0  0  0  0
   79.9455    5.6576  -11.2782 S   0  0  0  0  0  0  0  0  0  0  0  0
   78.1417    0.4660   -7.3416 S   0  0  1  0  0  0  0  0  0  0  0  0
   73.2104   -3.8388   -8.9115 H   0  0  0  0  0  0  0  0  0  0  0  0
   72.1933   -5.7661   -7.6847 H   0  0  0  0  0  0  0  0  0  0  0  0
   75.9836   -3.3497   -5.6848 H   0  0  0  0  0  0  0  0  0  0  0  0
   74.1945   -2.5936   -9.9161 H   0  0  0  0  0  0  0  0  0  0  0  0
   76.8783    0.7752   -9.9093 H   0  0  0  0  0  0  0  0  0  0  0  0
   75.1750   -0.6304  -11.0588 H   0  0  0  0  0  0  0  0  0  0  0  0
   80.5036    3.1861   -9.4167 H   0  0  0  0  0  0  0  0  0  0  0  0
   71.3886   -6.4497   -4.0504 H   0  0  0  0  0  0  0  0  0  0  0  0
   71.2065   -5.5383   -5.5876 H   0  0  0  0  0  0  0  0  0  0  0  0
   71.0938   -7.3311   -5.5876 H   0  0  0  0  0  0  0  0  0  0  0  0
   78.2080    5.1002   -9.7204 H   0  0  0  0  0  0  0  0  0  0  0  0
   79.8429    5.2939   -8.9279 H   0  0  0  0  0  0  0  0  0  0  0  0
   76.5963   -1.7562   -6.4268 H   0  0  0  0  0  0  0  0  0  0  0  0
   79.4839    0.9419   -9.1463 H   0  0  0  0  0  0  0  0  0  0  0  0
   79.0491    1.7721  -10.9807 H   0  0  0  0  0  0  0  0  0  0  0  0
   78.5724    3.2620  -11.5988 H   0  0  0  0  0  0  0  0  0  0  0  0
   80.1987    2.8330  -11.5988 H   0  0  0  0  0  0  0  0  0  0  0  0
   80.8040    6.6663  -10.9284 H   0  0  0  0  0  0  0  0  0  0  0  0
  1 11  1  0
  1 16  1  0
  1 19  2  0
  2  3  2  0
  2 12  1  0
  3  4  1  0
  4 17  2  0
  4 20  1  0
  5 12  2  0
  5 17  1  0
  6  9  2  0
  6 15  1  0
  6 24  1  0
  7  8  1  0
  7 12  1  0
  7 15  2  0
  8 10  2  0
  9 10  1  0
 11 14  1  0
 11 18  1  0
 13 20  1  0
 14 23  1  0
 24 16  1  6
 21 24  2  0
 22 24  2  0
  2 25  1  0
  3 26  1  0
  5 27  1  0
  8 28  1  0
  9 29  1  0
 10 30  1  0
 11 31  1  1
 13 32  1  0
 13 33  1  0
 13 34  1  0
 14 35  1  0
 14 36  1  0
 15 37  1  0
 16 38  1  0
 18 39  1  0
 18 40  1  0
 18 41  1  0
 23 42  1  0
M  CHG  1  18   1
M  END
>  <filename_input>  (22) 
8HFN_XGC_docked.sdf

>  <pdb_id>  (22) 
8HFN_XGC

>  <pose_rank>  (22) 
21

>  <num_atoms_heavy>  (22) 
24

>  <num_torsions>  (22) 
6

>  <pose>  (22) 
[76.84349097144778, -0.43867861350277537, -8.11830950360759, -2.2824919811489766, -0.40828646980774, -0.33413560097238926, 2.3390262807414746, -1.6304250164998948, 5.182430590757827, 0.5540421215986566, 1.1108526197805968, 0.2147108934620124]

>  <energy>  (22) 
-151.50319223021043

>  <inter_energy>  (22) 
-159.80359692547813

>  <intra_energy>  (22) 
12.845574902338742

>  <rmsd>  (22) 
11.5613

>  <sdf_rank>  (22) 
0

$$$$

     RDKit          3D

 42 43  0  0  0  0  0  0  0  0999 V2000
   75.9856   -4.3905   -8.3822 C   0  0  0  0  0  0  0  0  0  0  0  0
   70.9582   -3.2586   -1.4344 C   0  0  0  0  0  0  0  0  0  0  0  0
   70.3313   -2.3099   -0.6480 C   0  0  0  0  0  0  0  0  0  0  0  0
   70.9507   -1.0622   -0.5413 C   0  0  0  0  0  0  0  0  0  0  0  0
   72.6732   -1.6883   -1.8849 C   0  0  0  0  0  0  0  0  0  0  0  0
   74.4345   -4.5311   -4.6527 C   0  0  0  0  0  0  0  0  0  0  0  0
   72.8537   -3.9759   -2.9188 C   0  0  0  0  0  0  0  0  0  0  0  0
   72.5412   -5.3317   -2.8119 C   0  0  0  0  0  0  0  0  0  0  0  0
   74.0997   -5.8734   -4.5625 C   0  0  0  0  0  0  0  0  0  0  0  0
   73.1527   -6.2661   -3.6311 C   0  0  0  0  0  0  0  0  0  0  0  0
   75.5207   -5.2599   -9.5379 C   0  0  2  0  0  0  0  0  0  0  0  0
   72.1565   -2.9662   -2.0819 C   0  0  0  0  0  0  0  0  0  0  0  0
   70.0030    1.1057   -0.4459 C   0  0  0  0  0  0  0  0  0  0  0  0
   76.3714   -6.5172   -9.6730 C   0  0  0  0  0  0  0  0  0  0  0  0
   73.8152   -3.5813   -3.8551 C   0  0  0  0  0  0  0  0  0  0  0  0
   75.3171   -4.6166   -7.2168 N   0  0  0  0  0  0  0  0  0  0  0  0
   72.0930   -0.7432   -1.1290 N   0  0  0  0  0  0  0  0  0  0  0  0
   75.4856   -4.4810  -10.7894 N   0  0  0  0  0  0  0  0  0  0  0  0
   76.8984   -3.5824   -8.5113 O   0  0  0  0  0  0  0  0  0  0  0  0
   70.3123   -0.1301    0.1919 O   0  0  0  0  0  0  0  0  0  0  0  0
   75.7607   -2.5963   -5.7576 O   0  0  0  0  0  0  0  0  0  0  0  0
   76.9062   -4.7522   -5.3831 O   0  0  0  0  0  0  0  0  0  0  0  0
   77.2344   -6.6396  -11.2620 S   0  0  0  0  0  0  0  0  0  0  0  0
   75.7251   -4.0265   -5.7421 S   0  0  1  0  0  0  0  0  0  0  0  0
   70.5061   -4.2547   -1.5499 H   0  0  0  0  0  0  0  0  0  0  0  0
   69.3862   -2.5279   -0.1292 H   0  0  0  0  0  0  0  0  0  0  0  0
   73.6213   -1.4362   -2.3825 H   0  0  0  0  0  0  0  0  0  0  0  0
   71.8008   -5.6620   -2.0686 H   0  0  0  0  0  0  0  0  0  0  0  0
   74.5783   -6.6144   -5.2198 H   0  0  0  0  0  0  0  0  0  0  0  0
   72.8840   -7.3290   -3.5413 H   0  0  0  0  0  0  0  0  0  0  0  0
   74.4956   -5.5960   -9.3226 H   0  0  0  0  0  0  0  0  0  0  0  0
   69.8107    1.8742    0.3173 H   0  0  0  0  0  0  0  0  0  0  0  0
   70.8511    1.4166   -1.0737 H   0  0  0  0  0  0  0  0  0  0  0  0
   69.1085    0.9805   -1.0737 H   0  0  0  0  0  0  0  0  0  0  0  0
   77.1216   -6.5179   -8.8685 H   0  0  0  0  0  0  0  0  0  0  0  0
   75.6892   -7.3776   -9.6084 H   0  0  0  0  0  0  0  0  0  0  0  0
   74.0796   -2.5186   -3.9583 H   0  0  0  0  0  0  0  0  0  0  0  0
   74.4787   -5.2129   -7.2664 H   0  0  0  0  0  0  0  0  0  0  0  0
   75.4404   -3.4762  -10.5673 H   0  0  0  0  0  0  0  0  0  0  0  0
   76.3361   -4.6735  -11.3375 H   0  0  0  0  0  0  0  0  0  0  0  0
   74.6558   -4.7491  -11.3375 H   0  0  0  0  0  0  0  0  0  0  0  0
   78.5731   -6.8296  -11.0412 H   0  0  0  0  0  0  0  0  0  0  0  0
  1 11  1  0
  1 16  1  0
  1 19  2  0
  2  3  2  0
  2 12  1  0
  3  4  1  0
  4 17  2  0
  4 20  1  0
  5 12  2  0
  5 17  1  0
  6  9  2  0
  6 15  1  0
  6 24  1  0
  7  8  1  0
  7 12  1  0
  7 15  2  0
  8 10  2  0
  9 10  1  0
 11 14  1  0
 11 18  1  0
 13 20  1  0
 14 23  1  0
 24 16  1  6
 21 24  2  0
 22 24  2  0
  2 25  1  0
  3 26  1  0
  5 27  1  0
  8 28  1  0
  9 29  1  0
 10 30  1  0
 11 31  1  1
 13 32  1  0
 13 33  1  0
 13 34  1  0
 14 35  1  0
 14 36  1  0
 15 37  1  0
 16 38  1  0
 18 39  1  0
 18 40  1  0
 18 41  1  0
 23 42  1  0
M  CHG  1  18   1
M  END
>  <filename_input>  (23) 
8HFN_XGC_docked.sdf

>  <pdb_id>  (23) 
8HFN_XGC

>  <pose_rank>  (23) 
22

>  <num_atoms_heavy>  (23) 
24

>  <num_torsions>  (23) 
6

>  <pose>  (23) 
[74.43445643177928, -4.531062466347136, -4.652668202204503, -4.065177135005968, -1.0581723735091673, 0.17627866710157788, 2.148306015123023, -2.8481156914035575, 6.324033929976349, 1.8917841297286975, 2.432301290714016, 0.951248926182569]

>  <energy>  (23) 
-304.7360917058247

>  <inter_energy>  (23) 
-305.7756984823388

>  <intra_energy>  (23) 
2.161627625223531

>  <rmsd>  (23) 
9.27444

>  <sdf_rank>  (23) 
0

$$$$

     RDKit          3D

 42 43  0  0  0  0  0  0  0  0999 V2000
   68.8474   -7.8175   -3.7640 C   0  0  0  0  0  0  0  0  0  0  0  0
   61.2956   -8.0524   -7.6322 C   0  0  0  0  0  0  0  0  0  0  0  0
   60.7474   -8.0547   -8.9014 C   0  0  0  0  0  0  0  0  0  0  0  0
   61.5900   -8.4104   -9.9575 C   0  0  0  0  0  0  0  0  0  0  0  0
   63.3658   -8.7155   -8.5727 C   0  0  0  0  0  0  0  0  0  0  0  0
   65.0899   -8.8756   -4.6109 C   0  0  0  0  0  0  0  0  0  0  0  0
   63.2448   -8.3790   -6.0813 C   0  0  0  0  0  0  0  0  0  0  0  0
   62.5274   -7.9196   -4.9761 C   0  0  0  0  0  0  0  0  0  0  0  0
   64.3626   -8.4448   -3.5121 C   0  0  0  0  0  0  0  0  0  0  0  0
   63.0794   -7.9608   -3.7066 C   0  0  0  0  0  0  0  0  0  0  0  0
   69.5356   -6.5098   -4.1161 C   0  0  2  0  0  0  0  0  0  0  0  0
   62.6326   -8.3899   -7.4345 C   0  0  0  0  0  0  0  0  0  0  0  0
   59.9858   -7.5310  -11.4609 C   0  0  0  0  0  0  0  0  0  0  0  0
   70.6958   -6.7271   -5.0802 C   0  0  0  0  0  0  0  0  0  0  0  0
   64.5430   -8.8611   -5.8847 C   0  0  0  0  0  0  0  0  0  0  0  0
   67.6448   -7.9924   -4.3798 N   0  0  0  0  0  0  0  0  0  0  0  0
   62.8675   -8.7278   -9.8187 N   0  0  0  0  0  0  0  0  0  0  0  0
   69.9598   -5.8032   -2.8934 N   0  0  0  0  0  0  0  0  0  0  0  0
   69.3633   -8.6330   -3.0079 O   0  0  0  0  0  0  0  0  0  0  0  0
   61.0377   -8.4514  -11.1852 O   0  0  0  0  0  0  0  0  0  0  0  0
   66.8731  -10.0692   -3.1553 O   0  0  0  0  0  0  0  0  0  0  0  0
   67.1760  -10.0372   -5.6064 O   0  0  0  0  0  0  0  0  0  0  0  0
   72.3185   -6.7190   -4.2731 S   0  0  0  0  0  0  0  0  0  0  0  0
   66.7669   -9.3773   -4.4032 S   0  0  1  0  0  0  0  0  0  0  0  0
   60.6694   -7.7813   -6.7694 H   0  0  0  0  0  0  0  0  0  0  0  0
   59.6940   -7.7881   -9.0722 H   0  0  0  0  0  0  0  0  0  0  0  0
   64.4253   -8.9807   -8.4416 H   0  0  0  0  0  0  0  0  0  0  0  0
   61.5119   -7.5202   -5.1147 H   0  0  0  0  0  0  0  0  0  0  0  0
   64.7974   -8.4865   -2.5025 H   0  0  0  0  0  0  0  0  0  0  0  0
   62.4939   -7.6063   -2.8455 H   0  0  0  0  0  0  0  0  0  0  0  0
   68.8088   -5.8704   -4.6385 H   0  0  0  0  0  0  0  0  0  0  0  0
   59.5641   -7.1620  -10.5144 H   0  0  0  0  0  0  0  0  0  0  0  0
   60.3820   -6.6843  -12.0406 H   0  0  0  0  0  0  0  0  0  0  0  0
   59.1992   -8.0361  -12.0406 H   0  0  0  0  0  0  0  0  0  0  0  0
   70.5586   -7.6992   -5.5763 H   0  0  0  0  0  0  0  0  0  0  0  0
   70.6850   -5.8894   -5.7930 H   0  0  0  0  0  0  0  0  0  0  0  0
   65.1294   -9.2284   -6.7398 H   0  0  0  0  0  0  0  0  0  0  0  0
   67.2509   -7.1804   -4.8761 H   0  0  0  0  0  0  0  0  0  0  0  0
   69.6441   -6.3290   -2.0659 H   0  0  0  0  0  0  0  0  0  0  0  0
   70.9869   -5.7264   -2.8801 H   0  0  0  0  0  0  0  0  0  0  0  0
   69.5449   -4.8606   -2.8801 H   0  0  0  0  0  0  0  0  0  0  0  0
   72.1522   -6.7198   -2.9132 H   0  0  0  0  0  0  0  0  0  0  0  0
  1 11  1  0
  1 16  1  0
  1 19  2  0
  2  3  2  0
  2 12  1  0
  3  4  1  0
  4 17  2  0
  4 20  1  0
  5 12  2  0
  5 17  1  0
  6  9  2  0
  6 15  1  0
  6 24  1  0
  7  8  1  0
  7 12  1  0
  7 15  2  0
  8 10  2  0
  9 10  1  0
 11 14  1  0
 11 18  1  0
 13 20  1  0
 14 23  1  0
 24 16  1  1
 21 24  2  0
 22 24  2  0
  2 25  1  0
  3 26  1  0
  5 27  1  0
  8 28  1  0
  9 29  1  0
 10 30  1  0
 11 31  1  6
 13 32  1  0
 13 33  1  0
 13 34  1  0
 14 35  1  0
 14 36  1  0
 15 37  1  0
 16 38  1  0
 18 39  1  0
 18 40  1  0
 18 41  1  0
 23 42  1  0
M  CHG  1  18   1
M  END
>  <filename_input>  (24) 
8HFN_XGC_docked.sdf

>  <pdb_id>  (24) 
8HFN_XGC

>  <pose_rank>  (24) 
23

>  <num_atoms_heavy>  (24) 
24

>  <num_torsions>  (24) 
6

>  <pose>  (24) 
[65.08989752404946, -8.875599549425715, -4.6109462930790714, 0.08526981411425152, -4.554821804239081, -4.216800636498407, 2.3491796632587123, -0.12795697127626218, 3.950554568096409, 1.5123785844097333, 2.2469943504666947, 1.269137690873602]

>  <energy>  (24) 
-105.62789858459698

>  <inter_energy>  (24) 
-107.66142156651415

>  <intra_energy>  (24) 
8.160311202936757

>  <rmsd>  (24) 
10.8953

>  <sdf_rank>  (24) 
0

$$$$

     RDKit          3D

 42 43  0  0  0  0  0  0  0  0999 V2000
   60.6206    6.9172    1.9296 C   0  0  0  0  0  0  0  0  0  0  0  0
   61.9856    3.4882    5.5300 C   0  0  0  0  0  0  0  0  0  0  0  0
   61.5233    2.2407    5.9059 C   0  0  0  0  0  0  0  0  0  0  0  0
   61.2272    2.0530    7.2582 C   0  0  0  0  0  0  0  0  0  0  0  0
   61.8241    4.1804    7.7894 C   0  0  0  0  0  0  0  0  0  0  0  0
   62.5283    7.8229    4.7225 C   0  0  0  0  0  0  0  0  0  0  0  0
   62.6554    5.8432    6.0928 C   0  0  0  0  0  0  0  0  0  0  0  0
   63.7920    6.3754    6.7027 C   0  0  0  0  0  0  0  0  0  0  0  0
   63.6744    8.3344    5.3115 C   0  0  0  0  0  0  0  0  0  0  0  0
   64.2979    7.6030    6.3090 C   0  0  0  0  0  0  0  0  0  0  0  0
   60.6446    6.4000    0.5015 C   0  0  2  0  0  0  0  0  0  0  0  0
   62.1459    4.5009    6.4731 C   0  0  0  0  0  0  0  0  0  0  0  0
   61.4994   -0.2992    7.2464 C   0  0  0  0  0  0  0  0  0  0  0  0
   60.0309    7.4018   -0.4694 C   0  0  0  0  0  0  0  0  0  0  0  0
   62.0226    6.5858    5.0903 C   0  0  0  0  0  0  0  0  0  0  0  0
   61.5601    7.8693    2.1884 N   0  0  0  0  0  0  0  0  0  0  0  0
   61.3737    2.9813    8.1902 N   0  0  0  0  0  0  0  0  0  0  0  0
   59.9913    5.0807    0.4183 N   0  0  0  0  0  0  0  0  0  0  0  0
   59.8025    6.5114    2.7474 O   0  0  0  0  0  0  0  0  0  0  0  0
   60.7373    0.8485    7.6092 O   0  0  0  0  0  0  0  0  0  0  0  0
   60.3444    9.0562    4.0648 O   0  0  0  0  0  0  0  0  0  0  0  0
   62.4892    9.8901    3.1677 O   0  0  0  0  0  0  0  0  0  0  0  0
   60.1048    6.8703   -2.2005 S   0  0  0  0  0  0  0  0  0  0  0  0
   61.6494    8.7920    3.5412 S   0  0  1  0  0  0  0  0  0  0  0  0
   62.2294    3.6832    4.4752 H   0  0  0  0  0  0  0  0  0  0  0  0
   61.3943    1.4313    5.1722 H   0  0  0  0  0  0  0  0  0  0  0  0
   61.9474    4.9630    8.5526 H   0  0  0  0  0  0  0  0  0  0  0  0
   64.2919    5.8135    7.5054 H   0  0  0  0  0  0  0  0  0  0  0  0
   64.0818    9.3050    4.9921 H   0  0  0  0  0  0  0  0  0  0  0  0
   65.2025    8.0006    6.7924 H   0  0  0  0  0  0  0  0  0  0  0  0
   61.6951    6.2743    0.2006 H   0  0  0  0  0  0  0  0  0  0  0  0
   61.8416   -0.8146    8.1559 H   0  0  0  0  0  0  0  0  0  0  0  0
   60.8743   -0.9814    6.6516 H   0  0  0  0  0  0  0  0  0  0  0  0
   62.3707    0.0122    6.6516 H   0  0  0  0  0  0  0  0  0  0  0  0
   58.9759    7.5504   -0.1956 H   0  0  0  0  0  0  0  0  0  0  0  0
   60.6173    8.3292   -0.3906 H   0  0  0  0  0  0  0  0  0  0  0  0
   61.1247    6.1884    4.5945 H   0  0  0  0  0  0  0  0  0  0  0  0
   62.2804    8.0237    1.4685 H   0  0  0  0  0  0  0  0  0  0  0  0
   59.8149    4.7244    1.3685 H   0  0  0  0  0  0  0  0  0  0  0  0
   59.0977    5.1712   -0.0858 H   0  0  0  0  0  0  0  0  0  0  0  0
   60.6050    4.4249   -0.0858 H   0  0  0  0  0  0  0  0  0  0  0  0
   60.2934    5.5144   -2.2543 H   0  0  0  0  0  0  0  0  0  0  0  0
  1 11  1  0
  1 16  1  0
  1 19  2  0
  2  3  2  0
  2 12  1  0
  3  4  1  0
  4 17  2  0
  4 20  1  0
  5 12  2  0
  5 17  1  0
  6  9  2  0
  6 15  1  0
  6 24  1  0
  7  8  1  0
  7 12  1  0
  7 15  2  0
  8 10  2  0
  9 10  1  0
 11 14  1  0
 11 18  1  0
 13 20  1  0
 14 23  1  0
 24 16  1  6
 21 24  2  0
 22 24  2  0
  2 25  1  0
  3 26  1  0
  5 27  1  0
  8 28  1  0
  9 29  1  0
 10 30  1  0
 11 31  1  6
 13 32  1  0
 13 33  1  0
 13 34  1  0
 14 35  1  0
 14 36  1  0
 15 37  1  0
 16 38  1  0
 18 39  1  0
 18 40  1  0
 18 41  1  0
 23 42  1  0
M  CHG  1  18   1
M  END
>  <filename_input>  (25) 
8HFN_XGC_docked.sdf

>  <pdb_id>  (25) 
8HFN_XGC

>  <pose_rank>  (25) 
24

>  <num_atoms_heavy>  (25) 
24

>  <num_torsions>  (25) 
6

>  <pose>  (25) 
[62.52834170609467, 7.822929976138906, 4.722467282716614, 0.31801747153544035, 1.9150906547903919, 1.4730556269475839, 0.2976647533156081, 0.2621507727582961, 1.2524132780969994, 0.310554049904099, 2.7568100066535908, -0.16223988644794332]

>  <energy>  (25) 
-90.03598811960084

>  <inter_energy>  (25) 
-89.9986059407387

>  <intra_energy>  (25) 
14.352040401390862

>  <rmsd>  (25) 
13.9052

>  <sdf_rank>  (25) 
0

$$$$

     RDKit          3D

 42 43  0  0  0  0  0  0  0  0999 V2000
   71.5310   -2.2070    0.6190 C   0  0  0  0  0  0  0  0  0  0  0  0
   68.5990    0.2370   -4.6190 C   0  0  0  0  0  0  0  0  0  0  0  0
   68.0800    0.2680   -5.9000 C   0  0  0  0  0  0  0  0  0  0  0  0
   67.3570    1.4060   -6.2660 C   0  0  0  0  0  0  0  0  0  0  0  0
   67.6500    2.3720   -4.2300 C   0  0  0  0  0  0  0  0  0  0  0  0
   70.6660    0.6920   -0.7900 C   0  0  0  0  0  0  0  0  0  0  0  0
   68.9330    1.2820   -2.3590 C   0  0  0  0  0  0  0  0  0  0  0  0
   68.1800    1.7780   -1.2940 C   0  0  0  0  0  0  0  0  0  0  0  0
   69.9020    1.1600    0.2680 C   0  0  0  0  0  0  0  0  0  0  0  0
   68.6580    1.7090    0.0040 C   0  0  0  0  0  0  0  0  0  0  0  0
   71.7730   -3.1210    1.8080 C   0  0  2  0  0  0  0  0  0  0  0  0
   68.3970    1.3020   -3.7440 C   0  0  0  0  0  0  0  0  0  0  0  0
   66.3750    0.2370   -8.0760 C   0  0  0  0  0  0  0  0  0  0  0  0
   70.4640   -3.6080    2.4180 C   0  0  0  0  0  0  0  0  0  0  0  0
   70.1920    0.7340   -2.0920 C   0  0  0  0  0  0  0  0  0  0  0  0
   72.1620   -1.0030    0.7100 N   0  0  0  0  0  0  0  0  0  0  0  0
   67.1310    2.4360   -5.4660 N   0  0  0  0  0  0  0  0  0  0  0  0
   72.6320   -2.4560    2.8050 N   0  0  0  0  0  0  0  0  0  0  0  0
   70.8430   -2.5580   -0.3330 O   0  0  0  0  0  0  0  0  0  0  0  0
   66.8910    1.4470   -7.5290 O   0  0  0  0  0  0  0  0  0  0  0  0
   72.7820   -0.5040   -1.6930 O   0  0  0  0  0  0  0  0  0  0  0  0
   73.0470    1.1760    0.0980 O   0  0  0  0  0  0  0  0  0  0  0  0
   70.6860   -4.5490    3.9510 S   0  0  0  0  0  0  0  0  0  0  0  0
   72.3010    0.1050   -0.4910 S   0  0  1  0  0  0  0  0  0  0  0  0
   69.1775   -0.6378   -4.2872 H   0  0  0  0  0  0  0  0  0  0  0  0
   68.2298   -0.5668   -6.6004 H   0  0  0  0  0  0  0  0  0  0  0  0
   67.4733    3.2224   -3.5551 H   0  0  0  0  0  0  0  0  0  0  0  0
   67.1955    2.2289   -1.4876 H   0  0  0  0  0  0  0  0  0  0  0  0
   70.2775    1.0964    1.3000 H   0  0  0  0  0  0  0  0  0  0  0  0
   68.0446    2.0934    0.8322 H   0  0  0  0  0  0  0  0  0  0  0  0
   72.3043   -4.0151    1.4498 H   0  0  0  0  0  0  0  0  0  0  0  0
   66.0860   -0.4407   -7.2592 H   0  0  0  0  0  0  0  0  0  0  0  0
   65.4941    0.4610   -8.6956 H   0  0  0  0  0  0  0  0  0  0  0  0
   67.1464   -0.2436   -8.6956 H   0  0  0  0  0  0  0  0  0  0  0  0
   69.8342   -2.7326    2.6350 H   0  0  0  0  0  0  0  0  0  0  0  0
   69.9991   -4.2859    1.6870 H   0  0  0  0  0  0  0  0  0  0  0  0
   70.8053    0.3368   -2.9143 H   0  0  0  0  0  0  0  0  0  0  0  0
   72.5911   -0.7670    1.6161 H   0  0  0  0  0  0  0  0  0  0  0  0
   72.3128   -2.7031    3.7526 H   0  0  0  0  0  0  0  0  0  0  0  0
   73.6064   -2.7652    2.6794 H   0  0  0  0  0  0  0  0  0  0  0  0
   72.5768   -1.4352    2.6794 H   0  0  0  0  0  0  0  0  0  0  0  0
   70.4911   -3.7228    5.0263 H   0  0  0  0  0  0  0  0  0  0  0  0
  1 11  1  0
  1 16  1  0
  1 19  2  0
  2  3  2  0
  2 12  1  0
  3  4  1  0
  4 17  2  0
  4 20  1  0
  5 12  2  0
  5 17  1  0
  6  9  2  0
  6 15  1  0
  6 24  1  0
  7  8  1  0
  7 12  1  0
  7 15  2  0
  8 10  2  0
  9 10  1  0
 11 14  1  0
 11 18  1  0
 13 20  1  0
 14 23  1  0
 24 16  1  1
 21 24  2  0
 22 24  2  0
  2 25  1  0
  3 26  1  0
  5 27  1  0
  8 28  1  0
  9 29  1  0
 10 30  1  0
 11 31  1  6
 13 32  1  0
 13 33  1  0
 13 34  1  0
 14 35  1  0
 14 36  1  0
 15 37  1  0
 16 38  1  0
 18 39  1  0
 18 40  1  0
 18 41  1  0
 23 42  1  0
M  CHG  1  18   1
M  END
>  <filename_input>  (26) 
8HFN_XGC_docked.sdf

>  <pdb_id>  (26) 
8HFN_XGC

>  <pose_rank>  (26) 
25

>  <num_atoms_heavy>  (26) 
24

>  <num_torsions>  (26) 
6

>  <pose>  (26) 
[70.666, 0.692, -0.79, 1e-06, 1e-06, 1e-06, 0.0, 0.0, 0.0, 0.0, 0.0, 0.0]

>  <energy>  (26) 
-930.394711377142

>  <inter_energy>  (26) 
-939.3716570371888

>  <intra_energy>  (26) 
5.10661511196032

>  <rmsd>  (26) 
0.0

>  <sdf_rank>  (26) 
0

$$$$
