
     RDKit          3D

 38 41  0  0  0  0  0  0  0  0999 V2000
    4.7538   30.3492   -6.6833 C   0  0  1  0  0  0  0  0  0  0  0  0
    2.4195   30.7144  -10.2791 C   0  0  0  0  0  0  0  0  0  0  0  0
    3.3527   28.6391   -9.4201 C   0  0  0  0  0  0  0  0  0  0  0  0
    3.3582   30.0564   -9.5163 C   0  0  0  0  0  0  0  0  0  0  0  0
    6.9477   29.8259   -5.8408 O   0  0  0  0  0  0  0  0  0  0  0  0
    6.4252   30.0574   -3.2269 C   0  0  0  0  0  0  0  0  0  0  0  0
    3.3171   31.5604   -4.8624 C   0  0  0  0  0  0  0  0  0  0  0  0
    5.3785   30.7695   -8.0007 C   0  0  0  0  0  0  0  0  0  0  0  0
    4.1910   31.0665   -8.9615 C   0  0  0  0  0  0  0  0  0  0  0  0
    1.4343   29.9588  -10.9791 C   0  0  0  0  0  0  0  0  0  0  0  0
    1.4015   28.5676  -10.8757 C   0  0  0  0  0  0  0  0  0  0  0  0
    2.3711   27.9035  -10.0992 C   0  0  0  0  0  0  0  0  0  0  0  0
    5.8250   30.1280   -5.5961 C   0  0  0  0  0  0  0  0  0  0  0  0
    4.0804   30.6072   -3.9190 C   0  0  2  0  0  0  0  0  0  0  0  0
    4.5237   31.3607   -2.5070 C   0  0  0  0  0  0  0  0  0  0  0  0
    5.8372   30.6458   -2.0948 C   0  0  0  0  0  0  0  0  0  0  0  0
    3.7253   32.3080   -9.4076 C   0  0  0  0  0  0  0  0  0  0  0  0
    0.5062   30.6141  -11.7223 F   0  0  0  0  0  0  0  0  0  0  0  0
    5.2338   30.2906   -4.3725 N   0  0  0  0  0  0  0  0  0  0  0  0
    3.7026   31.4104   -6.3522 N   0  0  0  0  0  0  0  0  0  0  0  0
    2.6597   32.0748  -10.1943 N   0  0  0  0  0  0  0  0  0  0  0  0
    2.5033   32.3629   -4.5040 O   0  0  0  0  0  0  0  0  0  0  0  0
    4.2574   29.3696   -6.7462 H   0  0  0  0  0  0  0  0  0  0  0  0
    4.1136   28.1222   -8.8168 H   0  0  0  0  0  0  0  0  0  0  0  0
    7.3586   30.5676   -3.5070 H   0  0  0  0  0  0  0  0  0  0  0  0
    6.7171   29.0060   -3.0879 H   0  0  0  0  0  0  0  0  0  0  0  0
    5.9930   31.6712   -7.8621 H   0  0  0  0  0  0  0  0  0  0  0  0
    6.0368   29.9856   -8.4033 H   0  0  0  0  0  0  0  0  0  0  0  0
    0.6225   27.9926  -11.3978 H   0  0  0  0  0  0  0  0  0  0  0  0
    2.3581   26.8060  -10.0254 H   0  0  0  0  0  0  0  0  0  0  0  0
    3.3879   29.7608   -3.8002 H   0  0  0  0  0  0  0  0  0  0  0  0
    4.6988   32.4336   -2.6749 H   0  0  0  0  0  0  0  0  0  0  0  0
    3.7462   31.2967   -1.7315 H   0  0  0  0  0  0  0  0  0  0  0  0
    5.6129   29.8667   -1.3514 H   0  0  0  0  0  0  0  0  0  0  0  0
    6.5325   31.3787   -1.6596 H   0  0  0  0  0  0  0  0  0  0  0  0
    4.1514   33.2917   -9.1609 H   0  0  0  0  0  0  0  0  0  0  0  0
    3.2738   31.9947   -7.0840 H   0  0  0  0  0  0  0  0  0  0  0  0
    2.1033   32.8026  -10.6651 H   0  0  0  0  0  0  0  0  0  0  0  0
  1  8  1  0
  1 13  1  0
  1 20  1  0
  2  4  1  0
  2 10  2  0
  2 21  1  0
  3  4  2  0
  3 12  1  0
  4  9  1  0
  5 13  2  0
  6 16  1  0
  6 19  1  0
  7 14  1  0
  7 20  1  0
  7 22  2  0
  8  9  1  0
  9 17  2  0
 10 11  1  0
 10 18  1  0
 11 12  2  0
 13 19  1  0
 14 15  1  0
 14 19  1  0
 15 16  1  0
 17 21  1  0
  1 23  1  6
  3 24  1  0
  6 25  1  0
  6 26  1  0
  8 27  1  0
  8 28  1  0
 11 29  1  0
 12 30  1  0
 14 31  1  1
 15 32  1  0
 15 33  1  0
 16 34  1  0
 16 35  1  0
 17 36  1  0
 20 37  1  0
 21 38  1  0
M  END
>  <filename_input>  (1) 
8HO0_3ZI_docked.sdf

>  <pdb_id>  (1) 
8HO0_3ZI

>  <pose_rank>  (1) 
0

>  <num_atoms_heavy>  (1) 
22

>  <num_torsions>  (1) 
2

>  <pose>  (1) 
[4.7538371117353195, 30.349247731914115, -6.683255754432288, 2.6583344571186793, 5.158132038839981, 2.1426165155855594, 0.0952083135691198, -0.05414924869092355]

>  <energy>  (1) 
-817.525308451037

>  <inter_energy>  (1) 
-815.5157248687939

>  <intra_energy>  (1) 
12.095126011639536

>  <rmsd>  (1) 
0.29984

>  <sdf_rank>  (1) 
0

$$$$

     RDKit          3D

 38 41  0  0  0  0  0  0  0  0999 V2000
    4.5046   30.2475   -6.7656 C   0  0  1  0  0  0  0  0  0  0  0  0
    1.9258   30.3598  -10.4916 C   0  0  0  0  0  0  0  0  0  0  0  0
    2.6616   32.5907   -9.8611 C   0  0  0  0  0  0  0  0  0  0  0  0
    2.7761   31.1770   -9.7809 C   0  0  0  0  0  0  0  0  0  0  0  0
    6.8252   29.6412   -6.5563 O   0  0  0  0  0  0  0  0  0  0  0  0
    6.9708   29.5787   -3.8853 C   0  0  0  0  0  0  0  0  0  0  0  0
    3.5923   31.2436   -4.5246 C   0  0  0  0  0  0  0  0  0  0  0  0
    4.7943   30.8138   -8.1432 C   0  0  0  0  0  0  0  0  0  0  0  0
    3.6448   30.3100   -9.0630 C   0  0  0  0  0  0  0  0  0  0  0  0
    0.9200   30.9453  -11.3145 C   0  0  0  0  0  0  0  0  0  0  0  0
    0.8100   32.3322  -11.4219 C   0  0  0  0  0  0  0  0  0  0  0  0
    1.6797   33.1594  -10.6847 C   0  0  0  0  0  0  0  0  0  0  0  0
    5.8055   29.9103   -6.0091 C   0  0  0  0  0  0  0  0  0  0  0  0
    4.5417   30.1939   -3.9096 C   0  0  2  0  0  0  0  0  0  0  0  0
    5.3384   30.7872   -2.5786 C   0  0  0  0  0  0  0  0  0  0  0  0
    6.6953   30.0354   -2.5857 C   0  0  0  0  0  0  0  0  0  0  0  0
    3.2907   28.9908   -9.3659 C   0  0  0  0  0  0  0  0  0  0  0  0
    0.0906   30.1341  -12.0195 F   0  0  0  0  0  0  0  0  0  0  0  0
    5.5392   29.9337   -4.6669 N   0  0  0  0  0  0  0  0  0  0  0  0
    3.5940   31.2615   -6.0706 N   0  0  0  0  0  0  0  0  0  0  0  0
    2.2593   29.0427  -10.2274 N   0  0  0  0  0  0  0  0  0  0  0  0
    2.9121   31.9983   -3.8903 O   0  0  0  0  0  0  0  0  0  0  0  0
    3.9844   29.2792   -6.8093 H   0  0  0  0  0  0  0  0  0  0  0  0
    3.3388   33.2348   -9.2810 H   0  0  0  0  0  0  0  0  0  0  0  0
    7.8181   30.1201   -4.3313 H   0  0  0  0  0  0  0  0  0  0  0  0
    7.2623   28.5193   -3.9383 H   0  0  0  0  0  0  0  0  0  0  0  0
    4.8038   31.9133   -8.1104 H   0  0  0  0  0  0  0  0  0  0  0  0
    5.7784   30.4906   -8.5135 H   0  0  0  0  0  0  0  0  0  0  0  0
    0.0483   32.7772  -12.0790 H   0  0  0  0  0  0  0  0  0  0  0  0
    1.5883   34.2534  -10.7551 H   0  0  0  0  0  0  0  0  0  0  0  0
    3.8798   29.3371   -3.7152 H   0  0  0  0  0  0  0  0  0  0  0  0
    5.4926   31.8727   -2.6672 H   0  0  0  0  0  0  0  0  0  0  0  0
    4.7754   30.6346   -1.6460 H   0  0  0  0  0  0  0  0  0  0  0  0
    6.6428   29.1777   -1.8990 H   0  0  0  0  0  0  0  0  0  0  0  0
    7.4941   30.7178   -2.2598 H   0  0  0  0  0  0  0  0  0  0  0  0
    3.7672   28.0806   -8.9726 H   0  0  0  0  0  0  0  0  0  0  0  0
    3.0119   31.9221   -6.6051 H   0  0  0  0  0  0  0  0  0  0  0  0
    1.7864   28.2219  -10.6318 H   0  0  0  0  0  0  0  0  0  0  0  0
  1  8  1  0
  1 13  1  0
  1 20  1  0
  2  4  1  0
  2 10  2  0
  2 21  1  0
  3  4  2  0
  3 12  1  0
  4  9  1  0
  5 13  2  0
  6 16  1  0
  6 19  1  0
  7 14  1  0
  7 20  1  0
  7 22  2  0
  8  9  1  0
  9 17  2  0
 10 11  1  0
 10 18  1  0
 11 12  2  0
 13 19  1  0
 14 15  1  0
 14 19  1  0
 15 16  1  0
 17 21  1  0
  1 23  1  6
  3 24  1  0
  6 25  1  0
  6 26  1  0
  8 27  1  0
  8 28  1  0
 11 29  1  0
 12 30  1  0
 14 31  1  1
 15 32  1  0
 15 33  1  0
 16 34  1  0
 16 35  1  0
 17 36  1  0
 20 37  1  0
 21 38  1  0
M  END
>  <filename_input>  (2) 
8HO0_3ZI_docked.sdf

>  <pdb_id>  (2) 
8HO0_3ZI

>  <pose_rank>  (2) 
1

>  <num_atoms_heavy>  (2) 
22

>  <num_torsions>  (2) 
2

>  <pose>  (2) 
[4.504636189242976, 30.2474575391271, -6.76559961114189, -2.0962445438030257, -5.549444455162509, 1.3977445484456212, -0.5756727500297911, 3.3171724953921724]

>  <energy>  (2) 
-751.6632336205527

>  <inter_energy>  (2) 
-747.1567742567916

>  <intra_energy>  (2) 
0.0

>  <rmsd>  (2) 
2.04143

>  <sdf_rank>  (2) 
0

$$$$

     RDKit          3D

 38 41  0  0  0  0  0  0  0  0999 V2000
    3.7703   30.1146   -7.9826 C   0  0  1  0  0  0  0  0  0  0  0  0
    5.2108   31.3704   -3.8565 C   0  0  0  0  0  0  0  0  0  0  0  0
    6.4737   29.4457   -4.6415 C   0  0  0  0  0  0  0  0  0  0  0  0
    5.6050   30.5432   -4.8843 C   0  0  0  0  0  0  0  0  0  0  0  0
    3.5819   32.3893   -8.7485 O   0  0  0  0  0  0  0  0  0  0  0  0
    1.7293   32.0096  -10.6413 C   0  0  0  0  0  0  0  0  0  0  0  0
    2.7873   28.4496   -9.7457 C   0  0  0  0  0  0  0  0  0  0  0  0
    5.1646   30.4210   -7.4685 C   0  0  0  0  0  0  0  0  0  0  0  0
    4.9721   31.0431   -6.0552 C   0  0  0  0  0  0  0  0  0  0  0  0
    5.6822   31.1164   -2.5356 C   0  0  0  0  0  0  0  0  0  0  0  0
    6.5546   30.0564   -2.2853 C   0  0  0  0  0  0  0  0  0  0  0  0
    6.9456   29.2112   -3.3422 C   0  0  0  0  0  0  0  0  0  0  0  0
    3.2281   31.2607   -8.8606 C   0  0  0  0  0  0  0  0  0  0  0  0
    1.7791   29.5972   -9.9647 C   0  0  2  0  0  0  0  0  0  0  0  0
    1.4184   29.8031  -11.5727 C   0  0  0  0  0  0  0  0  0  0  0  0
    1.1156   31.3191  -11.6997 C   0  0  0  0  0  0  0  0  0  0  0  0
    4.2138   32.1625   -5.6958 C   0  0  0  0  0  0  0  0  0  0  0  0
    5.2968   31.9410   -1.5284 F   0  0  0  0  0  0  0  0  0  0  0  0
    2.2797   30.7446   -9.7015 N   0  0  0  0  0  0  0  0  0  0  0  0
    3.8610   28.7536   -8.6754 N   0  0  0  0  0  0  0  0  0  0  0  0
    4.3734   32.3440   -4.3728 N   0  0  0  0  0  0  0  0  0  0  0  0
    2.7741   27.4110  -10.3421 O   0  0  0  0  0  0  0  0  0  0  0  0
    3.0282   30.0489   -7.1734 H   0  0  0  0  0  0  0  0  0  0  0  0
    6.7742   28.7841   -5.4674 H   0  0  0  0  0  0  0  0  0  0  0  0
    2.5592   32.6374  -10.9976 H   0  0  0  0  0  0  0  0  0  0  0  0
    1.0634   32.7073  -10.1124 H   0  0  0  0  0  0  0  0  0  0  0  0
    5.7593   29.4980   -7.4023 H   0  0  0  0  0  0  0  0  0  0  0  0
    5.7011   31.1063   -8.1412 H   0  0  0  0  0  0  0  0  0  0  0  0
    6.9349   29.8818   -1.2680 H   0  0  0  0  0  0  0  0  0  0  0  0
    7.6221   28.3660   -3.1478 H   0  0  0  0  0  0  0  0  0  0  0  0
    0.9291   29.3124   -9.3273 H   0  0  0  0  0  0  0  0  0  0  0  0
    2.2737   29.5212  -12.2043 H   0  0  0  0  0  0  0  0  0  0  0  0
    0.5772   29.1749  -11.9010 H   0  0  0  0  0  0  0  0  0  0  0  0
    0.0281   31.4803  -11.6610 H   0  0  0  0  0  0  0  0  0  0  0  0
    1.5078   31.6923  -12.6573 H   0  0  0  0  0  0  0  0  0  0  0  0
    3.6011   32.7793   -6.3698 H   0  0  0  0  0  0  0  0  0  0  0  0
    4.5992   28.0747   -8.4409 H   0  0  0  0  0  0  0  0  0  0  0  0
    3.9361   33.0977   -3.8237 H   0  0  0  0  0  0  0  0  0  0  0  0
  1  8  1  0
  1 13  1  0
  1 20  1  0
  2  4  1  0
  2 10  2  0
  2 21  1  0
  3  4  2  0
  3 12  1  0
  4  9  1  0
  5 13  2  0
  6 16  1  0
  6 19  1  0
  7 14  1  0
  7 20  1  0
  7 22  2  0
  8  9  1  0
  9 17  2  0
 10 11  1  0
 10 18  1  0
 11 12  2  0
 13 19  1  0
 14 15  1  0
 14 19  1  0
 15 16  1  0
 17 21  1  0
  1 23  1  1
  3 24  1  0
  6 25  1  0
  6 26  1  0
  8 27  1  0
  8 28  1  0
 11 29  1  0
 12 30  1  0
 14 31  1  1
 15 32  1  0
 15 33  1  0
 16 34  1  0
 16 35  1  0
 17 36  1  0
 20 37  1  0
 21 38  1  0
M  END
>  <filename_input>  (3) 
8HO0_3ZI_docked.sdf

>  <pdb_id>  (3) 
8HO0_3ZI

>  <pose_rank>  (3) 
2

>  <num_atoms_heavy>  (3) 
22

>  <num_torsions>  (3) 
2

>  <pose>  (3) 
[3.770320954494803, 30.11460643438494, -7.982642959133968, -2.136276910259808, -1.4592386878461592, 0.8789467060004209, -1.4680121444530911, 3.3885273641282647]

>  <energy>  (3) 
-688.9834368442504

>  <inter_energy>  (3) 
-701.1366995516648

>  <intra_energy>  (3) 
13.153385953408268

>  <rmsd>  (3) 
7.01293

>  <sdf_rank>  (3) 
0

$$$$

     RDKit          3D

 38 41  0  0  0  0  0  0  0  0999 V2000
    3.8088   30.5991   -8.4810 C   0  0  1  0  0  0  0  0  0  0  0  0
    5.5399   30.4061   -4.5847 C   0  0  0  0  0  0  0  0  0  0  0  0
    3.9364   32.0278   -5.4302 C   0  0  0  0  0  0  0  0  0  0  0  0
    4.9618   31.0683   -5.6446 C   0  0  0  0  0  0  0  0  0  0  0  0
    3.3110   32.7773   -9.3777 O   0  0  0  0  0  0  0  0  0  0  0  0
    1.1916   32.1087  -10.8677 C   0  0  0  0  0  0  0  0  0  0  0  0
    2.6667   28.7203   -9.8994 C   0  0  0  0  0  0  0  0  0  0  0  0
    5.2431   31.0391   -8.2537 C   0  0  0  0  0  0  0  0  0  0  0  0
    5.6082   30.5790   -6.8127 C   0  0  0  0  0  0  0  0  0  0  0  0
    5.1011   30.6925   -3.2592 C   0  0  0  0  0  0  0  0  0  0  0  0
    4.0787   31.6152   -3.0342 C   0  0  0  0  0  0  0  0  0  0  0  0
    3.4992   32.2929   -4.1246 C   0  0  0  0  0  0  0  0  0  0  0  0
    3.0330   31.6230   -9.3341 C   0  0  0  0  0  0  0  0  0  0  0  0
    1.5486   29.7768  -10.0225 C   0  0  2  0  0  0  0  0  0  0  0  0
    0.8971   29.8107  -11.5497 C   0  0  0  0  0  0  0  0  0  0  0  0
    0.4584   31.2864  -11.7395 C   0  0  0  0  0  0  0  0  0  0  0  0
    6.5593   29.6314   -6.4191 C   0  0  0  0  0  0  0  0  0  0  0  0
    5.6690   30.0298   -2.2193 F   0  0  0  0  0  0  0  0  0  0  0  0
    1.9957   30.9728   -9.9460 N   0  0  0  0  0  0  0  0  0  0  0  0
    3.8837   29.1886   -9.0687 N   0  0  0  0  0  0  0  0  0  0  0  0
    6.4999   29.5401   -5.0786 N   0  0  0  0  0  0  0  0  0  0  0  0
    2.6311   27.6325  -10.3995 O   0  0  0  0  0  0  0  0  0  0  0  0
    3.2272   30.5613   -7.5481 H   0  0  0  0  0  0  0  0  0  0  0  0
    3.4884   32.5593   -6.2827 H   0  0  0  0  0  0  0  0  0  0  0  0
    1.8944   32.7524  -11.4169 H   0  0  0  0  0  0  0  0  0  0  0  0
    0.5757   32.8086  -10.2839 H   0  0  0  0  0  0  0  0  0  0  0  0
    5.9100   30.5631   -8.9876 H   0  0  0  0  0  0  0  0  0  0  0  0
    5.3545   32.1272   -8.3702 H   0  0  0  0  0  0  0  0  0  0  0  0
    3.7271   31.8122   -2.0107 H   0  0  0  0  0  0  0  0  0  0  0  0
    2.7025   33.0314   -3.9516 H   0  0  0  0  0  0  0  0  0  0  0  0
    0.8483   29.4985   -9.2212 H   0  0  0  0  0  0  0  0  0  0  0  0
    1.6482   29.5266  -12.3014 H   0  0  0  0  0  0  0  0  0  0  0  0
    0.0635   29.1031  -11.6696 H   0  0  0  0  0  0  0  0  0  0  0  0
   -0.6147   31.3814  -11.5174 H   0  0  0  0  0  0  0  0  0  0  0  0
    0.6465   31.5941  -12.7787 H   0  0  0  0  0  0  0  0  0  0  0  0
    7.2306   29.0664   -7.0825 H   0  0  0  0  0  0  0  0  0  0  0  0
    4.7026   28.5822   -8.9187 H   0  0  0  0  0  0  0  0  0  0  0  0
    7.0838   28.9164   -4.5033 H   0  0  0  0  0  0  0  0  0  0  0  0
  1  8  1  0
  1 13  1  0
  1 20  1  0
  2  4  1  0
  2 10  2  0
  2 21  1  0
  3  4  2  0
  3 12  1  0
  4  9  1  0
  5 13  2  0
  6 16  1  0
  6 19  1  0
  7 14  1  0
  7 20  1  0
  7 22  2  0
  8  9  1  0
  9 17  2  0
 10 11  1  0
 10 18  1  0
 11 12  2  0
 13 19  1  0
 14 15  1  0
 14 19  1  0
 15 16  1  0
 17 21  1  0
  1 23  1  1
  3 24  1  0
  6 25  1  0
  6 26  1  0
  8 27  1  0
  8 28  1  0
 11 29  1  0
 12 30  1  0
 14 31  1  1
 15 32  1  0
 15 33  1  0
 16 34  1  0
 16 35  1  0
 17 36  1  0
 20 37  1  0
 21 38  1  0
M  END
>  <filename_input>  (4) 
8HO0_3ZI_docked.sdf

>  <pdb_id>  (4) 
8HO0_3ZI

>  <pose_rank>  (4) 
3

>  <num_atoms_heavy>  (4) 
22

>  <num_torsions>  (4) 
2

>  <pose>  (4) 
[3.808817574795044, 30.599114453929165, -8.480956919438672, 2.625662210366498, 1.8719807627203957, -1.4939509087996985, -0.60631514416051, 0.09157276754170816]

>  <energy>  (4) 
-718.9097746607008

>  <inter_energy>  (4) 
-729.492142918102

>  <intra_energy>  (4) 
5.517521128034992

>  <rmsd>  (4) 
6.93027

>  <sdf_rank>  (4) 
0

$$$$

     RDKit          3D

 38 41  0  0  0  0  0  0  0  0999 V2000
    3.8854   29.2307   -8.3798 C   0  0  1  0  0  0  0  0  0  0  0  0
    5.7565   30.3317   -4.4976 C   0  0  0  0  0  0  0  0  0  0  0  0
    3.3324   30.4757   -4.6343 C   0  0  0  0  0  0  0  0  0  0  0  0
    4.5741   29.9696   -5.1033 C   0  0  0  0  0  0  0  0  0  0  0  0
    2.3087   27.6816   -9.3343 O   0  0  0  0  0  0  0  0  0  0  0  0
    1.2269   29.3066  -11.1641 C   0  0  0  0  0  0  0  0  0  0  0  0
    3.2525   31.6978   -8.9791 C   0  0  0  0  0  0  0  0  0  0  0  0
    3.8899   28.4125   -7.1019 C   0  0  0  0  0  0  0  0  0  0  0  0
    4.9292   29.0912   -6.1634 C   0  0  0  0  0  0  0  0  0  0  0  0
    5.7276   31.2264   -3.3885 C   0  0  0  0  0  0  0  0  0  0  0  0
    4.5141   31.7136   -2.9014 C   0  0  0  0  0  0  0  0  0  0  0  0
    3.3107   31.3433   -3.5330 C   0  0  0  0  0  0  0  0  0  0  0  0
    2.7608   28.7803   -9.3342 C   0  0  0  0  0  0  0  0  0  0  0  0
    2.8141   31.0465  -10.3076 C   0  0  2  0  0  0  0  0  0  0  0  0
    1.3966   31.6985  -10.8764 C   0  0  0  0  0  0  0  0  0  0  0  0
    0.7239   30.5285  -11.6410 C   0  0  0  0  0  0  0  0  0  0  0  0
    6.3210   28.9489   -6.1630 C   0  0  0  0  0  0  0  0  0  0  0  0
    6.8961   31.5725   -2.7903 F   0  0  0  0  0  0  0  0  0  0  0  0
    2.4535   29.8282  -10.1591 N   0  0  0  0  0  0  0  0  0  0  0  0
    3.8211   30.6967   -7.9472 N   0  0  0  0  0  0  0  0  0  0  0  0
    6.7980   29.6987   -5.1535 N   0  0  0  0  0  0  0  0  0  0  0  0
    3.1627   32.8668   -8.7339 O   0  0  0  0  0  0  0  0  0  0  0  0
    4.7953   29.0802   -8.9793 H   0  0  0  0  0  0  0  0  0  0  0  0
    2.3941   30.1889   -5.1317 H   0  0  0  0  0  0  0  0  0  0  0  0
    0.4616   28.7456  -10.6078 H   0  0  0  0  0  0  0  0  0  0  0  0
    1.5551   28.6153  -11.9542 H   0  0  0  0  0  0  0  0  0  0  0  0
    2.8924   28.4220   -6.6383 H   0  0  0  0  0  0  0  0  0  0  0  0
    4.1484   27.3613   -7.2969 H   0  0  0  0  0  0  0  0  0  0  0  0
    4.4973   32.3832   -2.0289 H   0  0  0  0  0  0  0  0  0  0  0  0
    2.3524   31.7354   -3.1616 H   0  0  0  0  0  0  0  0  0  0  0  0
    3.6888   31.1879  -10.9595 H   0  0  0  0  0  0  0  0  0  0  0  0
    0.7616   32.0384  -10.0450 H   0  0  0  0  0  0  0  0  0  0  0  0
    1.5622   32.5800  -11.5132 H   0  0  0  0  0  0  0  0  0  0  0  0
    0.9407   30.6199  -12.7156 H   0  0  0  0  0  0  0  0  0  0  0  0
   -0.3640   30.5641  -11.4822 H   0  0  0  0  0  0  0  0  0  0  0  0
    6.9146   28.3376   -6.8587 H   0  0  0  0  0  0  0  0  0  0  0  0
    4.1402   31.0011   -7.0163 H   0  0  0  0  0  0  0  0  0  0  0  0
    7.7934   29.7888   -4.9048 H   0  0  0  0  0  0  0  0  0  0  0  0
  1  8  1  0
  1 13  1  0
  1 20  1  0
  2  4  1  0
  2 10  2  0
  2 21  1  0
  3  4  2  0
  3 12  1  0
  4  9  1  0
  5 13  2  0
  6 16  1  0
  6 19  1  0
  7 14  1  0
  7 20  1  0
  7 22  2  0
  8  9  1  0
  9 17  2  0
 10 11  1  0
 10 18  1  0
 11 12  2  0
 13 19  1  0
 14 15  1  0
 14 19  1  0
 15 16  1  0
 17 21  1  0
  1 23  1  6
  3 24  1  0
  6 25  1  0
  6 26  1  0
  8 27  1  0
  8 28  1  0
 11 29  1  0
 12 30  1  0
 14 31  1  6
 15 32  1  0
 15 33  1  0
 16 34  1  0
 16 35  1  0
 17 36  1  0
 20 37  1  0
 21 38  1  0
M  END
>  <filename_input>  (5) 
8HO0_3ZI_docked.sdf

>  <pdb_id>  (5) 
8HO0_3ZI

>  <pose_rank>  (5) 
4

>  <num_atoms_heavy>  (5) 
22

>  <num_torsions>  (5) 
2

>  <pose>  (5) 
[3.8853815742945, 29.23066789091452, -8.379801570340845, 1.116740690246051, -2.4799516843961675, -1.0305741026475506, 0.1496138018979381, 2.9476559653168692]

>  <energy>  (5) 
-708.9709485928813

>  <inter_energy>  (5) 
-707.4855726195108

>  <intra_energy>  (5) 
17.828124348566885

>  <rmsd>  (5) 
6.78693

>  <sdf_rank>  (5) 
0

$$$$

     RDKit          3D

 38 41  0  0  0  0  0  0  0  0999 V2000
    3.9709   30.2418   -8.7261 C   0  0  1  0  0  0  0  0  0  0  0  0
    4.1494   30.9378   -4.2656 C   0  0  0  0  0  0  0  0  0  0  0  0
    5.7728   29.2515   -4.9265 C   0  0  0  0  0  0  0  0  0  0  0  0
    4.6124   30.0277   -5.1894 C   0  0  0  0  0  0  0  0  0  0  0  0
    2.3033   28.9840   -9.9234 O   0  0  0  0  0  0  0  0  0  0  0  0
    1.4007   30.9438  -11.5058 C   0  0  0  0  0  0  0  0  0  0  0  0
    3.5492   32.8136   -8.9597 C   0  0  0  0  0  0  0  0  0  0  0  0
    3.8777   29.2465   -7.5846 C   0  0  0  0  0  0  0  0  0  0  0  0
    3.7148   30.0945   -6.2900 C   0  0  0  0  0  0  0  0  0  0  0  0
    4.8460   31.0971   -3.0323 C   0  0  0  0  0  0  0  0  0  0  0  0
    6.0007   30.3589   -2.7694 C   0  0  0  0  0  0  0  0  0  0  0  0
    6.4617   29.4249   -3.7176 C   0  0  0  0  0  0  0  0  0  0  0  0
    2.8400   30.0302   -9.7530 C   0  0  0  0  0  0  0  0  0  0  0  0
    3.0963   32.4032  -10.3767 C   0  0  2  0  0  0  0  0  0  0  0  0
    1.7496   33.2452  -10.8621 C   0  0  0  0  0  0  0  0  0  0  0  0
    1.0076   32.2595  -11.8023 C   0  0  0  0  0  0  0  0  0  0  0  0
    2.7348   31.0485   -5.9951 C   0  0  0  0  0  0  0  0  0  0  0  0
    4.3893   32.0023   -2.1296 F   0  0  0  0  0  0  0  0  0  0  0  0
    2.6375   31.2098  -10.4167 N   0  0  0  0  0  0  0  0  0  0  0  0
    4.0103   31.6283   -8.0806 N   0  0  0  0  0  0  0  0  0  0  0  0
    3.0157   31.5450   -4.7772 N   0  0  0  0  0  0  0  0  0  0  0  0
    3.5449   33.9370   -8.5442 O   0  0  0  0  0  0  0  0  0  0  0  0
    4.8817   30.1079   -9.3281 H   0  0  0  0  0  0  0  0  0  0  0  0
    6.1285   28.5194   -5.6664 H   0  0  0  0  0  0  0  0  0  0  0  0
    0.5794   30.3710  -11.0504 H   0  0  0  0  0  0  0  0  0  0  0  0
    1.6944   30.3522  -12.3854 H   0  0  0  0  0  0  0  0  0  0  0  0
    3.0077   28.5874   -7.7219 H   0  0  0  0  0  0  0  0  0  0  0  0
    4.7688   28.6035   -7.5362 H   0  0  0  0  0  0  0  0  0  0  0  0
    6.5480   30.5057   -1.8266 H   0  0  0  0  0  0  0  0  0  0  0  0
    7.3635   28.8305   -3.5094 H   0  0  0  0  0  0  0  0  0  0  0  0
    3.9962   32.5676  -10.9875 H   0  0  0  0  0  0  0  0  0  0  0  0
    1.1215   33.5092   -9.9986 H   0  0  0  0  0  0  0  0  0  0  0  0
    2.0005   34.1946  -11.3579 H   0  0  0  0  0  0  0  0  0  0  0  0
    1.2592   32.4905  -12.8480 H   0  0  0  0  0  0  0  0  0  0  0  0
   -0.0779   32.3597  -11.6556 H   0  0  0  0  0  0  0  0  0  0  0  0
    1.8916   31.3383   -6.6393 H   0  0  0  0  0  0  0  0  0  0  0  0
    4.3276   31.7651   -7.1103 H   0  0  0  0  0  0  0  0  0  0  0  0
    2.4671   32.2715   -4.2954 H   0  0  0  0  0  0  0  0  0  0  0  0
  1  8  1  0
  1 13  1  0
  1 20  1  0
  2  4  1  0
  2 10  2  0
  2 21  1  0
  3  4  2  0
  3 12  1  0
  4  9  1  0
  5 13  2  0
  6 16  1  0
  6 19  1  0
  7 14  1  0
  7 20  1  0
  7 22  2  0
  8  9  1  0
  9 17  2  0
 10 11  1  0
 10 18  1  0
 11 12  2  0
 13 19  1  0
 14 15  1  0
 14 19  1  0
 15 16  1  0
 17 21  1  0
  1 23  1  6
  3 24  1  0
  6 25  1  0
  6 26  1  0
  8 27  1  0
  8 28  1  0
 11 29  1  0
 12 30  1  0
 14 31  1  6
 15 32  1  0
 15 33  1  0
 16 34  1  0
 16 35  1  0
 17 36  1  0
 20 37  1  0
 21 38  1  0
M  END
>  <filename_input>  (6) 
8HO0_3ZI_docked.sdf

>  <pdb_id>  (6) 
8HO0_3ZI

>  <pose_rank>  (6) 
5

>  <num_atoms_heavy>  (6) 
22

>  <num_torsions>  (6) 
2

>  <pose>  (6) 
[3.9708706250795585, 30.241824152379483, -8.726052239994742, -1.1744325399750228, 2.734089669911333, 1.3585960843610658, 1.059799018599187, -0.9278397197721397]

>  <energy>  (6) 
-655.1015537432669

>  <inter_energy>  (6) 
-699.1240223826989

>  <intra_energy>  (6) 
48.41513143840224

>  <rmsd>  (6) 
6.64388

>  <sdf_rank>  (6) 
0

$$$$

     RDKit          3D

 38 41  0  0  0  0  0  0  0  0999 V2000
    4.5859   29.9393   -9.7328 C   0  0  1  0  0  0  0  0  0  0  0  0
    4.2021   31.1897   -5.3133 C   0  0  0  0  0  0  0  0  0  0  0  0
    5.2015   28.9723   -5.3064 C   0  0  0  0  0  0  0  0  0  0  0  0
    4.7802   30.1417   -5.9942 C   0  0  0  0  0  0  0  0  0  0  0  0
    3.4894   27.8122   -9.4695 O   0  0  0  0  0  0  0  0  0  0  0  0
    1.2369   28.3688  -10.8020 C   0  0  0  0  0  0  0  0  0  0  0  0
    2.8713   31.7988  -10.4033 C   0  0  0  0  0  0  0  0  0  0  0  0
    5.4112   29.6483   -8.4932 C   0  0  0  0  0  0  0  0  0  0  0  0
    4.8086   30.5301   -7.3616 C   0  0  0  0  0  0  0  0  0  0  0  0
    4.0257   31.0932   -3.9022 C   0  0  0  0  0  0  0  0  0  0  0  0
    4.4557   29.9609   -3.2093 C   0  0  0  0  0  0  0  0  0  0  0  0
    5.0387   28.8910   -3.9161 C   0  0  0  0  0  0  0  0  0  0  0  0
    3.4435   28.9174   -9.9029 C   0  0  0  0  0  0  0  0  0  0  0  0
    2.2299   30.6366  -11.1903 C   0  0  2  0  0  0  0  0  0  0  0  0
    0.5719   30.6714  -11.1001 C   0  0  0  0  0  0  0  0  0  0  0  0
    0.1583   29.1793  -11.1936 C   0  0  0  0  0  0  0  0  0  0  0  0
    4.2456   31.8069   -7.4631 C   0  0  0  0  0  0  0  0  0  0  0  0
    3.4631   32.1336   -3.2357 F   0  0  0  0  0  0  0  0  0  0  0  0
    2.4569   29.4983  -10.6529 N   0  0  0  0  0  0  0  0  0  0  0  0
    4.1397   31.3980   -9.6151 N   0  0  0  0  0  0  0  0  0  0  0  0
    3.8913   32.1860   -6.2223 N   0  0  0  0  0  0  0  0  0  0  0  0
    2.4439   32.9173  -10.3751 O   0  0  0  0  0  0  0  0  0  0  0  0
    5.1645   29.8221  -10.6609 H   0  0  0  0  0  0  0  0  0  0  0  0
    5.6524   28.1361   -5.8609 H   0  0  0  0  0  0  0  0  0  0  0  0
    1.0354   27.8649   -9.8452 H   0  0  0  0  0  0  0  0  0  0  0  0
    1.4632   27.5509  -11.5018 H   0  0  0  0  0  0  0  0  0  0  0  0
    5.3395   28.5833   -8.2274 H   0  0  0  0  0  0  0  0  0  0  0  0
    6.4758   29.8723   -8.6556 H   0  0  0  0  0  0  0  0  0  0  0  0
    4.3400   29.9041   -2.1169 H   0  0  0  0  0  0  0  0  0  0  0  0
    5.3668   27.9904   -3.3765 H   0  0  0  0  0  0  0  0  0  0  0  0
    2.6460   30.7558  -12.2015 H   0  0  0  0  0  0  0  0  0  0  0  0
    0.2415   31.1095  -10.1468 H   0  0  0  0  0  0  0  0  0  0  0  0
    0.1183   31.2862  -11.8914 H   0  0  0  0  0  0  0  0  0  0  0  0
   -0.1222   28.9408  -12.2301 H   0  0  0  0  0  0  0  0  0  0  0  0
   -0.6992   28.9943  -10.5298 H   0  0  0  0  0  0  0  0  0  0  0  0
    4.1168   32.3917   -8.3858 H   0  0  0  0  0  0  0  0  0  0  0  0
    4.6576   32.0780   -9.0404 H   0  0  0  0  0  0  0  0  0  0  0  0
    3.4525   33.0867   -5.9833 H   0  0  0  0  0  0  0  0  0  0  0  0
  1  8  1  0
  1 13  1  0
  1 20  1  0
  2  4  1  0
  2 10  2  0
  2 21  1  0
  3  4  2  0
  3 12  1  0
  4  9  1  0
  5 13  2  0
  6 16  1  0
  6 19  1  0
  7 14  1  0
  7 20  1  0
  7 22  2  0
  8  9  1  0
  9 17  2  0
 10 11  1  0
 10 18  1  0
 11 12  2  0
 13 19  1  0
 14 15  1  0
 14 19  1  0
 15 16  1  0
 17 21  1  0
  1 23  1  6
  3 24  1  0
  6 25  1  0
  6 26  1  0
  8 27  1  0
  8 28  1  0
 11 29  1  0
 12 30  1  0
 14 31  1  6
 15 32  1  0
 15 33  1  0
 16 34  1  0
 16 35  1  0
 17 36  1  0
 20 37  1  0
 21 38  1  0
M  END
>  <filename_input>  (7) 
8HO0_3ZI_docked.sdf

>  <pdb_id>  (7) 
8HO0_3ZI

>  <pose_rank>  (7) 
6

>  <num_atoms_heavy>  (7) 
22

>  <num_torsions>  (7) 
2

>  <pose>  (7) 
[4.58587736069313, 29.93932234928514, -9.732817138636518, -1.7886957387481721, 3.3690300732619116, 1.2495032486515414, 1.5122620808440963, -2.5117071185372866]

>  <energy>  (7) 
-607.5090965398814

>  <inter_energy>  (7) 
-682.7473975049418

>  <intra_energy>  (7) 
77.69745256197844

>  <rmsd>  (7) 
6.34907

>  <sdf_rank>  (7) 
0

$$$$

     RDKit          3D

 38 41  0  0  0  0  0  0  0  0999 V2000
    4.6517   29.2634   -5.7168 C   0  0  1  0  0  0  0  0  0  0  0  0
    2.5769   27.9978   -9.4654 C   0  0  0  0  0  0  0  0  0  0  0  0
    3.0315   30.3789   -9.2665 C   0  0  0  0  0  0  0  0  0  0  0  0
    3.2866   29.0314   -8.8960 C   0  0  0  0  0  0  0  0  0  0  0  0
    6.8795   28.9736   -4.8510 O   0  0  0  0  0  0  0  0  0  0  0  0
    6.4922   30.0269   -2.4221 C   0  0  0  0  0  0  0  0  0  0  0  0
    3.3218   31.0217   -4.3073 C   0  0  0  0  0  0  0  0  0  0  0  0
    5.2135   29.2327   -7.1259 C   0  0  0  0  0  0  0  0  0  0  0  0
    4.1889   28.4286   -7.9774 C   0  0  0  0  0  0  0  0  0  0  0  0
    1.5750   28.2900  -10.4360 C   0  0  0  0  0  0  0  0  0  0  0  0
    1.3292   29.6066  -10.8276 C   0  0  0  0  0  0  0  0  0  0  0  0
    2.0551   30.6574  -10.2334 C   0  0  0  0  0  0  0  0  0  0  0  0
    5.7739   29.3664   -4.6640 C   0  0  0  0  0  0  0  0  0  0  0  0
    4.1214   30.3929   -3.1469 C   0  0  2  0  0  0  0  0  0  0  0  0
    4.6436   31.5394   -2.0648 C   0  0  0  0  0  0  0  0  0  0  0  0
    5.9684   30.9559   -1.5076 C   0  0  0  0  0  0  0  0  0  0  0  0
    3.9956   27.0436   -8.0227 C   0  0  0  0  0  0  0  0  0  0  0  0
    0.8850   27.2658  -11.0000 F   0  0  0  0  0  0  0  0  0  0  0  0
    5.2470   29.9200   -3.5286 N   0  0  0  0  0  0  0  0  0  0  0  0
    3.6301   30.4019   -5.6898 N   0  0  0  0  0  0  0  0  0  0  0  0
    3.0264   26.8058   -8.9242 N   0  0  0  0  0  0  0  0  0  0  0  0
    2.5359   31.9171   -4.1837 O   0  0  0  0  0  0  0  0  0  0  0  0
    4.1422   28.3268   -5.4462 H   0  0  0  0  0  0  0  0  0  0  0  0
    3.5964   31.1983   -8.7980 H   0  0  0  0  0  0  0  0  0  0  0  0
    7.4157   30.3989   -2.8897 H   0  0  0  0  0  0  0  0  0  0  0  0
    6.7793   29.0649   -1.9725 H   0  0  0  0  0  0  0  0  0  0  0  0
    5.3180   30.2550   -7.5183 H   0  0  0  0  0  0  0  0  0  0  0  0
    6.2112   28.7702   -7.1525 H   0  0  0  0  0  0  0  0  0  0  0  0
    0.5725   29.8228  -11.5962 H   0  0  0  0  0  0  0  0  0  0  0  0
    1.8555   31.6982  -10.5284 H   0  0  0  0  0  0  0  0  0  0  0  0
    3.4268   29.6449   -2.7371 H   0  0  0  0  0  0  0  0  0  0  0  0
    4.8216   32.5005   -2.5693 H   0  0  0  0  0  0  0  0  0  0  0  0
    3.9056   31.7423   -1.2747 H   0  0  0  0  0  0  0  0  0  0  0  0
    5.7735   30.4555   -0.5476 H   0  0  0  0  0  0  0  0  0  0  0  0
    6.6926   31.7699   -1.3564 H   0  0  0  0  0  0  0  0  0  0  0  0
    4.5358   26.2898   -7.4312 H   0  0  0  0  0  0  0  0  0  0  0  0
    3.1712   30.7381   -6.5485 H   0  0  0  0  0  0  0  0  0  0  0  0
    2.6704   25.8725   -9.1754 H   0  0  0  0  0  0  0  0  0  0  0  0
  1  8  1  0
  1 13  1  0
  1 20  1  0
  2  4  1  0
  2 10  2  0
  2 21  1  0
  3  4  2  0
  3 12  1  0
  4  9  1  0
  5 13  2  0
  6 16  1  0
  6 19  1  0
  7 14  1  0
  7 20  1  0
  7 22  2  0
  8  9  1  0
  9 17  2  0
 10 11  1  0
 10 18  1  0
 11 12  2  0
 13 19  1  0
 14 15  1  0
 14 19  1  0
 15 16  1  0
 17 21  1  0
  1 23  1  1
  3 24  1  0
  6 25  1  0
  6 26  1  0
  8 27  1  0
  8 28  1  0
 11 29  1  0
 12 30  1  0
 14 31  1  1
 15 32  1  0
 15 33  1  0
 16 34  1  0
 16 35  1  0
 17 36  1  0
 20 37  1  0
 21 38  1  0
M  END
>  <filename_input>  (8) 
8HO0_3ZI_docked.sdf

>  <pdb_id>  (8) 
8HO0_3ZI

>  <pose_rank>  (8) 
7

>  <num_atoms_heavy>  (8) 
22

>  <num_torsions>  (8) 
2

>  <pose>  (8) 
[4.651683180803786, 29.263388809025496, -5.7167561278382015, 5.853420636236169, 0.6008658842306775, 0.6172753535553552, 5.804196162857076, 3.027449299394589]

>  <energy>  (8) 
-627.2848285401652

>  <inter_energy>  (8) 
-625.9179308162161

>  <intra_energy>  (8) 
1.3177967616876862

>  <rmsd>  (8) 
2.32825

>  <sdf_rank>  (8) 
0

$$$$

     RDKit          3D

 38 41  0  0  0  0  0  0  0  0999 V2000
    4.5833   27.8590   -7.3806 C   0  0  1  0  0  0  0  0  0  0  0  0
    1.7640   29.8480  -10.4578 C   0  0  0  0  0  0  0  0  0  0  0  0
    3.0971   31.6660   -9.5447 C   0  0  0  0  0  0  0  0  0  0  0  0
    2.8124   30.2805   -9.6768 C   0  0  0  0  0  0  0  0  0  0  0  0
    5.6894   26.6698   -9.1579 O   0  0  0  0  0  0  0  0  0  0  0  0
    6.7049   24.6627   -7.7090 C   0  0  0  0  0  0  0  0  0  0  0  0
    5.5144   27.1301   -5.0464 C   0  0  0  0  0  0  0  0  0  0  0  0
    4.6569   29.1292   -8.2074 C   0  0  0  0  0  0  0  0  0  0  0  0
    3.4077   29.1085   -9.1351 C   0  0  0  0  0  0  0  0  0  0  0  0
    0.9577   30.8067  -11.1377 C   0  0  0  0  0  0  0  0  0  0  0  0
    1.2392   32.1697  -11.0367 C   0  0  0  0  0  0  0  0  0  0  0  0
    2.3091   32.6023  -10.2290 C   0  0  0  0  0  0  0  0  0  0  0  0
    5.4368   26.7331   -7.9987 C   0  0  0  0  0  0  0  0  0  0  0  0
    5.6043   25.7546   -5.7403 C   0  0  2  0  0  0  0  0  0  0  0  0
    6.9946   24.9452   -5.3281 C   0  0  0  0  0  0  0  0  0  0  0  0
    7.3196   24.0919   -6.5821 C   0  0  0  0  0  0  0  0  0  0  0  0
    2.6976   28.0004   -9.6097 C   0  0  0  0  0  0  0  0  0  0  0  0
   -0.0689   30.3733  -11.9131 F   0  0  0  0  0  0  0  0  0  0  0  0
    5.7730   25.8549   -7.0043 N   0  0  0  0  0  0  0  0  0  0  0  0
    4.9677   28.2561   -5.9540 N   0  0  0  0  0  0  0  0  0  0  0  0
    1.7175   28.4657  -10.4044 N   0  0  0  0  0  0  0  0  0  0  0  0
    5.8414   27.3419   -3.9138 O   0  0  0  0  0  0  0  0  0  0  0  0
    3.5727   27.4248   -7.3649 H   0  0  0  0  0  0  0  0  0  0  0  0
    3.9302   32.0019   -8.9098 H   0  0  0  0  0  0  0  0  0  0  0  0
    7.4471   25.0878   -8.4007 H   0  0  0  0  0  0  0  0  0  0  0  0
    6.1350   23.9485   -8.3216 H   0  0  0  0  0  0  0  0  0  0  0  0
    4.6329   30.0132   -7.5532 H   0  0  0  0  0  0  0  0  0  0  0  0
    5.5898   29.1791   -8.7880 H   0  0  0  0  0  0  0  0  0  0  0  0
    0.6289   32.9024  -11.5849 H   0  0  0  0  0  0  0  0  0  0  0  0
    2.5267   33.6765  -10.1349 H   0  0  0  0  0  0  0  0  0  0  0  0
    4.6685   25.2592   -5.4420 H   0  0  0  0  0  0  0  0  0  0  0  0
    7.8097   25.6522   -5.1145 H   0  0  0  0  0  0  0  0  0  0  0  0
    6.8752   24.3348   -4.4208 H   0  0  0  0  0  0  0  0  0  0  0  0
    6.9423   23.0689   -6.4374 H   0  0  0  0  0  0  0  0  0  0  0  0
    8.4087   24.0631   -6.7337 H   0  0  0  0  0  0  0  0  0  0  0  0
    2.9027   26.9452   -9.3763 H   0  0  0  0  0  0  0  0  0  0  0  0
    4.8674   29.2237   -5.6156 H   0  0  0  0  0  0  0  0  0  0  0  0
    1.0320   27.8789  -10.9010 H   0  0  0  0  0  0  0  0  0  0  0  0
  1  8  1  0
  1 13  1  0
  1 20  1  0
  2  4  1  0
  2 10  2  0
  2 21  1  0
  3  4  2  0
  3 12  1  0
  4  9  1  0
  5 13  2  0
  6 16  1  0
  6 19  1  0
  7 14  1  0
  7 20  1  0
  7 22  2  0
  8  9  1  0
  9 17  2  0
 10 11  1  0
 10 18  1  0
 11 12  2  0
 13 19  1  0
 14 15  1  0
 14 19  1  0
 15 16  1  0
 17 21  1  0
  1 23  1  1
  3 24  1  0
  6 25  1  0
  6 26  1  0
  8 27  1  0
  8 28  1  0
 11 29  1  0
 12 30  1  0
 14 31  1  6
 15 32  1  0
 15 33  1  0
 16 34  1  0
 16 35  1  0
 17 36  1  0
 20 37  1  0
 21 38  1  0
M  END
>  <filename_input>  (9) 
8HO0_3ZI_docked.sdf

>  <pdb_id>  (9) 
8HO0_3ZI

>  <pose_rank>  (9) 
8

>  <num_atoms_heavy>  (9) 
22

>  <num_torsions>  (9) 
2

>  <pose>  (9) 
[4.583313599408963, 27.858976998657244, -7.380576160121694, 0.7747066672709979, 0.8410782534278197, -0.6204003203710372, 4.836689343206924, -2.38211270304442]

>  <energy>  (9) 
-604.7369193410264

>  <inter_energy>  (9) 
-612.9872801028323

>  <intra_energy>  (9) 
8.941541699683587

>  <rmsd>  (9) 
4.37683

>  <sdf_rank>  (9) 
0

$$$$

     RDKit          3D

 38 41  0  0  0  0  0  0  0  0999 V2000
    5.3018   27.2001   -8.9836 C   0  0  1  0  0  0  0  0  0  0  0  0
    2.7380   30.8436  -10.2839 C   0  0  0  0  0  0  0  0  0  0  0  0
    1.3301   28.9322  -10.8132 C   0  0  0  0  0  0  0  0  0  0  0  0
    2.5446   29.4808  -10.3212 C   0  0  0  0  0  0  0  0  0  0  0  0
    4.2379   27.3288   -6.8276 O   0  0  0  0  0  0  0  0  0  0  0  0
    6.0915   26.0287   -5.4018 C   0  0  0  0  0  0  0  0  0  0  0  0
    7.1399   25.3381   -9.0099 C   0  0  0  0  0  0  0  0  0  0  0  0
    3.9459   27.3679   -9.6438 C   0  0  0  0  0  0  0  0  0  0  0  0
    3.7378   28.9010   -9.8096 C   0  0  0  0  0  0  0  0  0  0  0  0
    1.7042   31.7086  -10.7472 C   0  0  0  0  0  0  0  0  0  0  0  0
    0.4966   31.1856  -11.2113 C   0  0  0  0  0  0  0  0  0  0  0  0
    0.3117   29.7898  -11.2528 C   0  0  0  0  0  0  0  0  0  0  0  0
    5.1643   26.9503   -7.4680 C   0  0  0  0  0  0  0  0  0  0  0  0
    7.3517   25.8131   -7.5570 C   0  0  2  0  0  0  0  0  0  0  0  0
    7.6262   24.5407   -6.5256 C   0  0  0  0  0  0  0  0  0  0  0  0
    7.0430   25.0212   -5.1710 C   0  0  0  0  0  0  0  0  0  0  0  0
    4.6170   29.9371   -9.4765 C   0  0  0  0  0  0  0  0  0  0  0  0
    1.8977   33.0515  -10.6994 F   0  0  0  0  0  0  0  0  0  0  0  0
    6.2847   26.2918   -7.0388 N   0  0  0  0  0  0  0  0  0  0  0  0
    6.0207   26.0957   -9.7608 N   0  0  0  0  0  0  0  0  0  0  0  0
    3.9965   31.0948   -9.7656 N   0  0  0  0  0  0  0  0  0  0  0  0
    7.7606   24.4578   -9.5339 O   0  0  0  0  0  0  0  0  0  0  0  0
    5.9091   28.1160   -9.0305 H   0  0  0  0  0  0  0  0  0  0  0  0
    1.1896   27.8418  -10.8490 H   0  0  0  0  0  0  0  0  0  0  0  0
    5.0740   25.6832   -5.1667 H   0  0  0  0  0  0  0  0  0  0  0  0
    6.2273   26.9272   -4.7819 H   0  0  0  0  0  0  0  0  0  0  0  0
    3.9347   26.8720  -10.6257 H   0  0  0  0  0  0  0  0  0  0  0  0
    3.1449   26.9148   -9.0412 H   0  0  0  0  0  0  0  0  0  0  0  0
   -0.3068   31.8598  -11.5431 H   0  0  0  0  0  0  0  0  0  0  0  0
   -0.6330   29.3720  -11.6308 H   0  0  0  0  0  0  0  0  0  0  0  0
    8.1798   26.5319   -7.6440 H   0  0  0  0  0  0  0  0  0  0  0  0
    7.1080   23.6356   -6.8751 H   0  0  0  0  0  0  0  0  0  0  0  0
    8.6913   24.2745   -6.4567 H   0  0  0  0  0  0  0  0  0  0  0  0
    7.8538   25.4194   -4.5433 H   0  0  0  0  0  0  0  0  0  0  0  0
    6.5635   24.1749   -4.6573 H   0  0  0  0  0  0  0  0  0  0  0  0
    5.6275   29.8256   -9.0564 H   0  0  0  0  0  0  0  0  0  0  0  0
    5.7719   25.8685  -10.7341 H   0  0  0  0  0  0  0  0  0  0  0  0
    4.3993   32.0319   -9.6223 H   0  0  0  0  0  0  0  0  0  0  0  0
  1  8  1  0
  1 13  1  0
  1 20  1  0
  2  4  1  0
  2 10  2  0
  2 21  1  0
  3  4  2  0
  3 12  1  0
  4  9  1  0
  5 13  2  0
  6 16  1  0
  6 19  1  0
  7 14  1  0
  7 20  1  0
  7 22  2  0
  8  9  1  0
  9 17  2  0
 10 11  1  0
 10 18  1  0
 11 12  2  0
 13 19  1  0
 14 15  1  0
 14 19  1  0
 15 16  1  0
 17 21  1  0
  1 23  1  1
  3 24  1  0
  6 25  1  0
  6 26  1  0
  8 27  1  0
  8 28  1  0
 11 29  1  0
 12 30  1  0
 14 31  1  6
 15 32  1  0
 15 33  1  0
 16 34  1  0
 16 35  1  0
 17 36  1  0
 20 37  1  0
 21 38  1  0
M  END
>  <filename_input>  (10) 
8HO0_3ZI_docked.sdf

>  <pdb_id>  (10) 
8HO0_3ZI

>  <pose_rank>  (10) 
9

>  <num_atoms_heavy>  (10) 
22

>  <num_torsions>  (10) 
2

>  <pose>  (10) 
[5.3017598806442665, 27.200099901203515, -8.983570351640251, -1.2296388067614372, 0.7212352428736882, -2.994111681927244, 4.900700449212631, -1.876431244534554]

>  <energy>  (10) 
-597.5601160884762

>  <inter_energy>  (10) 
-584.9523333241317

>  <intra_energy>  (10) 
1.8679757242719335

>  <rmsd>  (10) 
4.98231

>  <sdf_rank>  (10) 
0

$$$$

     RDKit          3D

 38 41  0  0  0  0  0  0  0  0999 V2000
    3.7108   28.9286   -8.7252 C   0  0  1  0  0  0  0  0  0  0  0  0
    5.8916   25.0398   -7.7258 C   0  0  0  0  0  0  0  0  0  0  0  0
    3.6593   24.8868   -6.7721 C   0  0  0  0  0  0  0  0  0  0  0  0
    4.7090   25.6426   -7.3596 C   0  0  0  0  0  0  0  0  0  0  0  0
    1.7787   27.7133   -9.4910 O   0  0  0  0  0  0  0  0  0  0  0  0
    0.7818   29.5686  -11.1412 C   0  0  0  0  0  0  0  0  0  0  0  0
    3.4543   31.4889   -9.2008 C   0  0  0  0  0  0  0  0  0  0  0  0
    3.7298   28.0748   -7.4710 C   0  0  0  0  0  0  0  0  0  0  0  0
    4.8509   27.0182   -7.6901 C   0  0  0  0  0  0  0  0  0  0  0  0
    6.0589   23.6410   -7.5089 C   0  0  0  0  0  0  0  0  0  0  0  0
    5.0283   22.8809   -6.9546 C   0  0  0  0  0  0  0  0  0  0  0  0
    3.8254   23.5084   -6.5761 C   0  0  0  0  0  0  0  0  0  0  0  0
    2.4143   28.7162   -9.5329 C   0  0  0  0  0  0  0  0  0  0  0  0
    2.7456   30.9736  -10.4711 C   0  0  2  0  0  0  0  0  0  0  0  0
    1.4060   31.8824  -10.8420 C   0  0  0  0  0  0  0  0  0  0  0  0
    0.4471   30.8762  -11.5307 C   0  0  0  0  0  0  0  0  0  0  0  0
    6.1199   27.2027   -8.2495 C   0  0  0  0  0  0  0  0  0  0  0  0
    7.2239   23.0512   -7.8804 F   0  0  0  0  0  0  0  0  0  0  0  0
    2.1967   29.8316  -10.2954 N   0  0  0  0  0  0  0  0  0  0  0  0
    3.9610   30.3664   -8.2660 N   0  0  0  0  0  0  0  0  0  0  0  0
    6.7270   26.0026   -8.2650 N   0  0  0  0  0  0  0  0  0  0  0  0
    3.6038   32.6456   -8.9284 O   0  0  0  0  0  0  0  0  0  0  0  0
    4.4979   28.6452   -9.4394 H   0  0  0  0  0  0  0  0  0  0  0  0
    2.7225   25.3797   -6.4731 H   0  0  0  0  0  0  0  0  0  0  0  0
    0.0047   29.1283  -10.4991 H   0  0  0  0  0  0  0  0  0  0  0  0
    0.8816   28.8609  -11.9774 H   0  0  0  0  0  0  0  0  0  0  0  0
    3.9548   28.6941   -6.5902 H   0  0  0  0  0  0  0  0  0  0  0  0
    2.7548   27.5976   -7.2931 H   0  0  0  0  0  0  0  0  0  0  0  0
    5.1547   21.7972   -6.8140 H   0  0  0  0  0  0  0  0  0  0  0  0
    3.0151   22.9162   -6.1259 H   0  0  0  0  0  0  0  0  0  0  0  0
    3.5434   30.9855  -11.2283 H   0  0  0  0  0  0  0  0  0  0  0  0
    0.9497   32.2958   -9.9305 H   0  0  0  0  0  0  0  0  0  0  0  0
    1.6442   32.7450  -11.4816 H   0  0  0  0  0  0  0  0  0  0  0  0
    0.5412   30.9688  -12.6228 H   0  0  0  0  0  0  0  0  0  0  0  0
   -0.5889   31.0939  -11.2321 H   0  0  0  0  0  0  0  0  0  0  0  0
    6.5425   28.1523   -8.6095 H   0  0  0  0  0  0  0  0  0  0  0  0
    4.4423   30.5758   -7.3798 H   0  0  0  0  0  0  0  0  0  0  0  0
    7.6754   25.8258   -8.6256 H   0  0  0  0  0  0  0  0  0  0  0  0
  1  8  1  0
  1 13  1  0
  1 20  1  0
  2  4  1  0
  2 10  2  0
  2 21  1  0
  3  4  2  0
  3 12  1  0
  4  9  1  0
  5 13  2  0
  6 16  1  0
  6 19  1  0
  7 14  1  0
  7 20  1  0
  7 22  2  0
  8  9  1  0
  9 17  2  0
 10 11  1  0
 10 18  1  0
 11 12  2  0
 13 19  1  0
 14 15  1  0
 14 19  1  0
 15 16  1  0
 17 21  1  0
  1 23  1  6
  3 24  1  0
  6 25  1  0
  6 26  1  0
  8 27  1  0
  8 28  1  0
 11 29  1  0
 12 30  1  0
 14 31  1  6
 15 32  1  0
 15 33  1  0
 16 34  1  0
 16 35  1  0
 17 36  1  0
 20 37  1  0
 21 38  1  0
M  END
>  <filename_input>  (11) 
8HO0_3ZI_docked.sdf

>  <pdb_id>  (11) 
8HO0_3ZI

>  <pose_rank>  (11) 
10

>  <num_atoms_heavy>  (11) 
22

>  <num_torsions>  (11) 
2

>  <pose>  (11) 
[3.7107846471381336, 28.92863439860171, -8.725230399730398, 0.8221576724967684, -2.503153801892835, -1.14694990788633, 5.117401394774804, -7.470964006124634]

>  <energy>  (11) 
-547.4754491747057

>  <inter_energy>  (11) 
-544.3073874295133

>  <intra_energy>  (11) 
0.0

>  <rmsd>  (11) 
6.74475

>  <sdf_rank>  (11) 
0

$$$$

     RDKit          3D

 38 41  0  0  0  0  0  0  0  0999 V2000
    4.2989   27.2281   -7.7107 C   0  0  1  0  0  0  0  0  0  0  0  0
    1.9985   29.8991  -10.6372 C   0  0  0  0  0  0  0  0  0  0  0  0
    3.8598   31.1869   -9.7467 C   0  0  0  0  0  0  0  0  0  0  0  0
    3.1893   29.9507   -9.9477 C   0  0  0  0  0  0  0  0  0  0  0  0
    4.6313   25.4129   -9.2570 O   0  0  0  0  0  0  0  0  0  0  0  0
    4.9558   23.4413   -7.4775 C   0  0  0  0  0  0  0  0  0  0  0  0
    5.1504   26.5886   -5.3206 C   0  0  0  0  0  0  0  0  0  0  0  0
    4.7587   28.2011   -8.7804 C   0  0  0  0  0  0  0  0  0  0  0  0
    3.4782   28.6129   -9.5628 C   0  0  0  0  0  0  0  0  0  0  0  0
    1.4364   31.1038  -11.1514 C   0  0  0  0  0  0  0  0  0  0  0  0
    2.0948   32.3224  -10.9824 C   0  0  0  0  0  0  0  0  0  0  0  0
    3.3085   32.3657  -10.2687 C   0  0  0  0  0  0  0  0  0  0  0  0
    4.5661   25.7668   -8.1247 C   0  0  0  0  0  0  0  0  0  0  0  0
    4.6140   25.1991   -5.7245 C   0  0  2  0  0  0  0  0  0  0  0  0
    5.6198   23.9784   -5.2184 C   0  0  0  0  0  0  0  0  0  0  0  0
    5.4328   22.8691   -6.2864 C   0  0  0  0  0  0  0  0  0  0  0  0
    2.4487   27.7920  -10.0358 C   0  0  0  0  0  0  0  0  0  0  0  0
    0.2666   31.0448  -11.8379 F   0  0  0  0  0  0  0  0  0  0  0  0
    4.6532   25.0085   -6.9887 N   0  0  0  0  0  0  0  0  0  0  0  0
    4.9778   27.6694   -6.4127 N   0  0  0  0  0  0  0  0  0  0  0  0
    1.5727   28.5829  -10.6806 N   0  0  0  0  0  0  0  0  0  0  0  0
    5.6692   26.8371   -4.2701 O   0  0  0  0  0  0  0  0  0  0  0  0
    3.2091   27.2492   -7.5628 H   0  0  0  0  0  0  0  0  0  0  0  0
    4.8051   31.2191   -9.1852 H   0  0  0  0  0  0  0  0  0  0  0  0
    5.7147   23.4070   -8.2730 H   0  0  0  0  0  0  0  0  0  0  0  0
    4.0834   22.9269   -7.9067 H   0  0  0  0  0  0  0  0  0  0  0  0
    5.2254   29.0839   -8.3191 H   0  0  0  0  0  0  0  0  0  0  0  0
    5.5084   27.7460   -9.4444 H   0  0  0  0  0  0  0  0  0  0  0  0
    1.6683   33.2444  -11.4043 H   0  0  0  0  0  0  0  0  0  0  0  0
    3.8246   33.3258  -10.1208 H   0  0  0  0  0  0  0  0  0  0  0  0
    3.6031   25.1824   -5.2910 H   0  0  0  0  0  0  0  0  0  0  0  0
    6.6649   24.3201   -5.1888 H   0  0  0  0  0  0  0  0  0  0  0  0
    5.3842   23.6305   -4.2018 H   0  0  0  0  0  0  0  0  0  0  0  0
    4.7086   22.1263   -5.9207 H   0  0  0  0  0  0  0  0  0  0  0  0
    6.3981   22.3771   -6.4770 H   0  0  0  0  0  0  0  0  0  0  0  0
    2.3704   26.7026   -9.9047 H   0  0  0  0  0  0  0  0  0  0  0  0
    5.3031   28.6367   -6.2734 H   0  0  0  0  0  0  0  0  0  0  0  0
    0.7104   28.2566  -11.1399 H   0  0  0  0  0  0  0  0  0  0  0  0
  1  8  1  0
  1 13  1  0
  1 20  1  0
  2  4  1  0
  2 10  2  0
  2 21  1  0
  3  4  2  0
  3 12  1  0
  4  9  1  0
  5 13  2  0
  6 16  1  0
  6 19  1  0
  7 14  1  0
  7 20  1  0
  7 22  2  0
  8  9  1  0
  9 17  2  0
 10 11  1  0
 10 18  1  0
 11 12  2  0
 13 19  1  0
 14 15  1  0
 14 19  1  0
 15 16  1  0
 17 21  1  0
  1 23  1  1
  3 24  1  0
  6 25  1  0
  6 26  1  0
  8 27  1  0
  8 28  1  0
 11 29  1  0
 12 30  1  0
 14 31  1  1
 15 32  1  0
 15 33  1  0
 16 34  1  0
 16 35  1  0
 17 36  1  0
 20 37  1  0
 21 38  1  0
M  END
>  <filename_input>  (12) 
8HO0_3ZI_docked.sdf

>  <pdb_id>  (12) 
8HO0_3ZI

>  <pose_rank>  (12) 
11

>  <num_atoms_heavy>  (12) 
22

>  <num_torsions>  (12) 
2

>  <pose>  (12) 
[4.298867790790574, 27.228066721926847, -7.710735519085087, 0.7535115041047706, 0.6906536882572314, -1.090249673755042, -1.3756670047425215, -2.7033450573573634]

>  <energy>  (12) 
-570.6500660312905

>  <inter_energy>  (12) 
-567.6510451945063

>  <intra_energy>  (12) 
6.091071977133435

>  <rmsd>  (12) 
4.87295

>  <sdf_rank>  (12) 
0

$$$$

     RDKit          3D

 38 41  0  0  0  0  0  0  0  0999 V2000
    3.5320   30.4880   -8.8822 C   0  0  1  0  0  0  0  0  0  0  0  0
    6.9351   28.0853   -7.1563 C   0  0  0  0  0  0  0  0  0  0  0  0
    4.7926   27.2546   -6.3591 C   0  0  0  0  0  0  0  0  0  0  0  0
    5.5859   28.2717   -6.9543 C   0  0  0  0  0  0  0  0  0  0  0  0
    2.3967   28.3694   -9.0207 O   0  0  0  0  0  0  0  0  0  0  0  0
    0.7621   28.9375  -11.0614 C   0  0  0  0  0  0  0  0  0  0  0  0
    2.1777   32.3572  -10.1147 C   0  0  0  0  0  0  0  0  0  0  0  0
    3.8656   30.1953   -7.4313 C   0  0  0  0  0  0  0  0  0  0  0  0
    5.2934   29.5766   -7.4372 C   0  0  0  0  0  0  0  0  0  0  0  0
    7.5373   26.8556   -6.7601 C   0  0  0  0  0  0  0  0  0  0  0  0
    6.7670   25.8380   -6.1958 C   0  0  0  0  0  0  0  0  0  0  0  0
    5.3891   26.0417   -5.9861 C   0  0  0  0  0  0  0  0  0  0  0  0
    2.5148   29.4736   -9.4431 C   0  0  0  0  0  0  0  0  0  0  0  0
    1.8455   31.1970  -11.0764 C   0  0  2  0  0  0  0  0  0  0  0  0
    0.2624   31.2436  -11.5760 C   0  0  0  0  0  0  0  0  0  0  0  0
   -0.1033   29.7541  -11.8082 C   0  0  0  0  0  0  0  0  0  0  0  0
    6.4806   30.1385   -7.9193 C   0  0  0  0  0  0  0  0  0  0  0  0
    8.8662   26.6747   -6.9701 F   0  0  0  0  0  0  0  0  0  0  0  0
    1.8601   30.0588  -10.4928 N   0  0  0  0  0  0  0  0  0  0  0  0
    3.0841   31.9501   -8.9301 N   0  0  0  0  0  0  0  0  0  0  0  0
    7.4531   29.2260   -7.7446 N   0  0  0  0  0  0  0  0  0  0  0  0
    1.7763   33.4788  -10.2394 O   0  0  0  0  0  0  0  0  0  0  0  0
    4.3995   30.3637   -9.5471 H   0  0  0  0  0  0  0  0  0  0  0  0
    3.7177   27.4174   -6.1921 H   0  0  0  0  0  0  0  0  0  0  0  0
    0.2328   28.4381  -10.2365 H   0  0  0  0  0  0  0  0  0  0  0  0
    1.2140   28.1156  -11.6361 H   0  0  0  0  0  0  0  0  0  0  0  0
    3.8536   31.1236   -6.8413 H   0  0  0  0  0  0  0  0  0  0  0  0
    3.1319   29.5123   -6.9785 H   0  0  0  0  0  0  0  0  0  0  0  0
    7.2334   24.8819   -5.9162 H   0  0  0  0  0  0  0  0  0  0  0  0
    4.7800   25.2480   -5.5289 H   0  0  0  0  0  0  0  0  0  0  0  0
    2.5921   31.3099  -11.8764 H   0  0  0  0  0  0  0  0  0  0  0  0
   -0.3792   31.6871  -10.8003 H   0  0  0  0  0  0  0  0  0  0  0  0
    0.1212   31.8590  -12.4767 H   0  0  0  0  0  0  0  0  0  0  0  0
   -0.0026   29.5142  -12.8770 H   0  0  0  0  0  0  0  0  0  0  0  0
   -1.1410   29.5773  -11.4888 H   0  0  0  0  0  0  0  0  0  0  0  0
    6.5969   31.1399   -8.3593 H   0  0  0  0  0  0  0  0  0  0  0  0
    3.3716   32.6284   -8.2102 H   0  0  0  0  0  0  0  0  0  0  0  0
    8.4396   29.3571   -8.0099 H   0  0  0  0  0  0  0  0  0  0  0  0
  1  8  1  0
  1 13  1  0
  1 20  1  0
  2  4  1  0
  2 10  2  0
  2 21  1  0
  3  4  2  0
  3 12  1  0
  4  9  1  0
  5 13  2  0
  6 16  1  0
  6 19  1  0
  7 14  1  0
  7 20  1  0
  7 22  2  0
  8  9  1  0
  9 17  2  0
 10 11  1  0
 10 18  1  0
 11 12  2  0
 13 19  1  0
 14 15  1  0
 14 19  1  0
 15 16  1  0
 17 21  1  0
  1 23  1  6
  3 24  1  0
  6 25  1  0
  6 26  1  0
  8 27  1  0
  8 28  1  0
 11 29  1  0
 12 30  1  0
 14 31  1  6
 15 32  1  0
 15 33  1  0
 16 34  1  0
 16 35  1  0
 17 36  1  0
 20 37  1  0
 21 38  1  0
M  END
>  <filename_input>  (13) 
8HO0_3ZI_docked.sdf

>  <pdb_id>  (13) 
8HO0_3ZI

>  <pose_rank>  (13) 
12

>  <num_atoms_heavy>  (13) 
22

>  <num_torsions>  (13) 
2

>  <pose>  (13) 
[3.531987740786335, 30.48804775635339, -8.88224250846919, -1.7162083021479864, 3.187657230756217, 0.7956351918365269, -1.2794397603462742, -7.1713945149280445]

>  <energy>  (13) 
-581.3637908211502

>  <inter_energy>  (13) 
-570.6798214795432

>  <intra_energy>  (13) 
0.21646637463837656

>  <rmsd>  (13) 
6.59605

>  <sdf_rank>  (13) 
0

$$$$

     RDKit          3D

 38 41  0  0  0  0  0  0  0  0999 V2000
    4.2696   29.1051   -6.8801 C   0  0  1  0  0  0  0  0  0  0  0  0
    2.5199   31.5620  -10.1288 C   0  0  0  0  0  0  0  0  0  0  0  0
    2.0782   29.1734  -10.2528 C   0  0  0  0  0  0  0  0  0  0  0  0
    2.8512   30.2701   -9.7862 C   0  0  0  0  0  0  0  0  0  0  0  0
    6.5104   28.5111   -6.2303 O   0  0  0  0  0  0  0  0  0  0  0  0
    6.4281   29.3901   -3.7045 C   0  0  0  0  0  0  0  0  0  0  0  0
    3.2546   30.8678   -5.2341 C   0  0  0  0  0  0  0  0  0  0  0  0
    4.7161   29.1349   -8.3300 C   0  0  0  0  0  0  0  0  0  0  0  0
    4.0110   30.3660   -8.9694 C   0  0  0  0  0  0  0  0  0  0  0  0
    1.3879   31.7948  -10.9630 C   0  0  0  0  0  0  0  0  0  0  0  0
    0.6050   30.7297  -11.4100 C   0  0  0  0  0  0  0  0  0  0  0  0
    0.9570   29.4113  -11.0604 C   0  0  0  0  0  0  0  0  0  0  0  0
    5.4729   29.0005   -5.9212 C   0  0  0  0  0  0  0  0  0  0  0  0
    4.0648   30.0628   -4.1964 C   0  0  2  0  0  0  0  0  0  0  0  0
    4.7920   31.0526   -3.0786 C   0  0  0  0  0  0  0  0  0  0  0  0
    6.0819   30.2883   -2.6812 C   0  0  0  0  0  0  0  0  0  0  0  0
    4.3436   31.7190   -8.8428 C   0  0  0  0  0  0  0  0  0  0  0  0
    1.0614   33.0714  -11.2898 F   0  0  0  0  0  0  0  0  0  0  0  0
    5.0985   29.5084   -4.7067 N   0  0  0  0  0  0  0  0  0  0  0  0
    3.3862   30.3381   -6.6807 N   0  0  0  0  0  0  0  0  0  0  0  0
    3.4344   32.4201   -9.5432 N   0  0  0  0  0  0  0  0  0  0  0  0
    2.5849   31.8270   -4.9770 O   0  0  0  0  0  0  0  0  0  0  0  0
    3.6809   28.2077   -6.6392 H   0  0  0  0  0  0  0  0  0  0  0  0
    2.3575   28.1444   -9.9824 H   0  0  0  0  0  0  0  0  0  0  0  0
    7.3492   29.7014   -4.2190 H   0  0  0  0  0  0  0  0  0  0  0  0
    6.6396   28.3688   -3.3550 H   0  0  0  0  0  0  0  0  0  0  0  0
    5.8088   29.2454   -8.3915 H   0  0  0  0  0  0  0  0  0  0  0  0
    4.4532   28.2031   -8.8523 H   0  0  0  0  0  0  0  0  0  0  0  0
   -0.2823   30.9186  -12.0320 H   0  0  0  0  0  0  0  0  0  0  0  0
    0.3513   28.5671  -11.4215 H   0  0  0  0  0  0  0  0  0  0  0  0
    3.3243   29.3598   -3.7873 H   0  0  0  0  0  0  0  0  0  0  0  0
    5.0372   32.0289   -3.5221 H   0  0  0  0  0  0  0  0  0  0  0  0
    4.1432   31.2643   -2.2159 H   0  0  0  0  0  0  0  0  0  0  0  0
    5.9059   29.7318   -1.7489 H   0  0  0  0  0  0  0  0  0  0  0  0
    6.9017   31.0061   -2.5306 H   0  0  0  0  0  0  0  0  0  0  0  0
    5.1909   32.1324   -8.2760 H   0  0  0  0  0  0  0  0  0  0  0  0
    2.9038   30.7920   -7.4696 H   0  0  0  0  0  0  0  0  0  0  0  0
    3.4206   33.4463   -9.6310 H   0  0  0  0  0  0  0  0  0  0  0  0
  1  8  1  0
  1 13  1  0
  1 20  1  0
  2  4  1  0
  2 10  2  0
  2 21  1  0
  3  4  2  0
  3 12  1  0
  4  9  1  0
  5 13  2  0
  6 16  1  0
  6 19  1  0
  7 14  1  0
  7 20  1  0
  7 22  2  0
  8  9  1  0
  9 17  2  0
 10 11  1  0
 10 18  1  0
 11 12  2  0
 13 19  1  0
 14 15  1  0
 14 19  1  0
 15 16  1  0
 17 21  1  0
  1 23  1  6
  3 24  1  0
  6 25  1  0
  6 26  1  0
  8 27  1  0
  8 28  1  0
 11 29  1  0
 12 30  1  0
 14 31  1  1
 15 32  1  0
 15 33  1  0
 16 34  1  0
 16 35  1  0
 17 36  1  0
 20 37  1  0
 21 38  1  0
M  END
>  <filename_input>  (14) 
8HO0_3ZI_docked.sdf

>  <pdb_id>  (14) 
8HO0_3ZI

>  <pose_rank>  (14) 
13

>  <num_atoms_heavy>  (14) 
22

>  <num_torsions>  (14) 
2

>  <pose>  (14) 
[4.269614327490813, 29.105120815241396, -6.880134581187731, -0.28537555346572197, 0.06352971994257992, -0.13213961082223183, -24.223326329997317, -13.13449329408697]

>  <energy>  (14) 
-681.1003078817963

>  <inter_energy>  (14) 
-709.1917200544736

>  <intra_energy>  (14) 
36.8709858611353

>  <rmsd>  (14) 
1.50594

>  <sdf_rank>  (14) 
0

$$$$

     RDKit          3D

 38 41  0  0  0  0  0  0  0  0999 V2000
    4.8372   28.7782   -7.6713 C   0  0  1  0  0  0  0  0  0  0  0  0
    1.5932   30.0596  -10.5016 C   0  0  0  0  0  0  0  0  0  0  0  0
    3.1749   31.8221   -9.9470 C   0  0  0  0  0  0  0  0  0  0  0  0
    2.8242   30.4475  -10.0220 C   0  0  0  0  0  0  0  0  0  0  0  0
    5.4998   26.5554   -8.3167 O   0  0  0  0  0  0  0  0  0  0  0  0
    6.4376   25.7277   -5.9514 C   0  0  0  0  0  0  0  0  0  0  0  0
    5.9946   29.4868   -5.4341 C   0  0  0  0  0  0  0  0  0  0  0  0
    4.9587   29.2165   -9.1189 C   0  0  0  0  0  0  0  0  0  0  0  0
    3.5074   29.2486   -9.6792 C   0  0  0  0  0  0  0  0  0  0  0  0
    0.6636   31.0538  -10.9249 C   0  0  0  0  0  0  0  0  0  0  0  0
    1.0023   32.4068  -10.8793 C   0  0  0  0  0  0  0  0  0  0  0  0
    2.2611   32.7936  -10.3796 C   0  0  0  0  0  0  0  0  0  0  0  0
    5.4311   27.3714   -7.4559 C   0  0  0  0  0  0  0  0  0  0  0  0
    5.7955   27.9942   -5.0968 C   0  0  2  0  0  0  0  0  0  0  0  0
    7.1095   27.3602   -4.3034 C   0  0  0  0  0  0  0  0  0  0  0  0
    7.1289   25.8709   -4.7368 C   0  0  0  0  0  0  0  0  0  0  0  0
    2.6638   28.1699   -9.9658 C   0  0  0  0  0  0  0  0  0  0  0  0
   -0.5450   30.6643  -11.4050 F   0  0  0  0  0  0  0  0  0  0  0  0
    5.7885   27.2539   -6.1400 N   0  0  0  0  0  0  0  0  0  0  0  0
    5.4770   29.8879   -6.8347 N   0  0  0  0  0  0  0  0  0  0  0  0
    1.5215   28.6780  -10.4615 N   0  0  0  0  0  0  0  0  0  0  0  0
    6.5101   30.2849   -4.7048 O   0  0  0  0  0  0  0  0  0  0  0  0
    3.7907   28.6575   -7.3544 H   0  0  0  0  0  0  0  0  0  0  0  0
    4.1567   32.1223   -9.5522 H   0  0  0  0  0  0  0  0  0  0  0  0
    7.1205   25.4757   -6.7762 H   0  0  0  0  0  0  0  0  0  0  0  0
    5.6930   24.9180   -5.9533 H   0  0  0  0  0  0  0  0  0  0  0  0
    5.4140   30.2161   -9.1789 H   0  0  0  0  0  0  0  0  0  0  0  0
    5.5986   28.5322   -9.6952 H   0  0  0  0  0  0  0  0  0  0  0  0
    0.2898   33.1672  -11.2318 H   0  0  0  0  0  0  0  0  0  0  0  0
    2.5277   33.8596  -10.3286 H   0  0  0  0  0  0  0  0  0  0  0  0
    4.8557   27.9871   -4.5252 H   0  0  0  0  0  0  0  0  0  0  0  0
    8.0349   27.8689   -4.6116 H   0  0  0  0  0  0  0  0  0  0  0  0
    7.0438   27.4821   -3.2121 H   0  0  0  0  0  0  0  0  0  0  0  0
    6.6427   25.2577   -3.9637 H   0  0  0  0  0  0  0  0  0  0  0  0
    8.1700   25.5402   -4.8662 H   0  0  0  0  0  0  0  0  0  0  0  0
    2.8922   27.1046   -9.8139 H   0  0  0  0  0  0  0  0  0  0  0  0
    5.5587   30.8525   -7.1865 H   0  0  0  0  0  0  0  0  0  0  0  0
    0.7113   28.1202  -10.7669 H   0  0  0  0  0  0  0  0  0  0  0  0
  1  8  1  0
  1 13  1  0
  1 20  1  0
  2  4  1  0
  2 10  2  0
  2 21  1  0
  3  4  2  0
  3 12  1  0
  4  9  1  0
  5 13  2  0
  6 16  1  0
  6 19  1  0
  7 14  1  0
  7 20  1  0
  7 22  2  0
  8  9  1  0
  9 17  2  0
 10 11  1  0
 10 18  1  0
 11 12  2  0
 13 19  1  0
 14 15  1  0
 14 19  1  0
 15 16  1  0
 17 21  1  0
  1 23  1  1
  3 24  1  0
  6 25  1  0
  6 26  1  0
  8 27  1  0
  8 28  1  0
 11 29  1  0
 12 30  1  0
 14 31  1  1
 15 32  1  0
 15 33  1  0
 16 34  1  0
 16 35  1  0
 17 36  1  0
 20 37  1  0
 21 38  1  0
M  END
>  <filename_input>  (15) 
8HO0_3ZI_docked.sdf

>  <pdb_id>  (15) 
8HO0_3ZI

>  <pose_rank>  (15) 
14

>  <num_atoms_heavy>  (15) 
22

>  <num_torsions>  (15) 
2

>  <pose>  (15) 
[4.837165721839423, 28.778220514975445, -7.6712905414372505, 0.19649580720343313, 0.5857059253243869, -1.040486790653361, -1.1779018959156882, -3.1527756728659497]

>  <energy>  (15) 
-617.0495234718833

>  <inter_energy>  (15) 
-601.5739251174059

>  <intra_energy>  (15) 
0.0

>  <rmsd>  (15) 
3.45773

>  <sdf_rank>  (15) 
0

$$$$

     RDKit          3D

 38 41  0  0  0  0  0  0  0  0999 V2000
    3.6392   30.2944   -8.1878 C   0  0  1  0  0  0  0  0  0  0  0  0
    0.8106   31.9993  -11.4051 C   0  0  0  0  0  0  0  0  0  0  0  0
    2.2217   33.8506  -10.6997 C   0  0  0  0  0  0  0  0  0  0  0  0
    1.9013   32.4666  -10.7065 C   0  0  0  0  0  0  0  0  0  0  0  0
    4.8160   28.7893   -9.6528 O   0  0  0  0  0  0  0  0  0  0  0  0
    5.7112   27.0714   -7.8071 C   0  0  0  0  0  0  0  0  0  0  0  0
    4.4279   29.9960   -5.7108 C   0  0  0  0  0  0  0  0  0  0  0  0
    3.7828   31.3909   -9.2266 C   0  0  0  0  0  0  0  0  0  0  0  0
    2.4941   31.3273  -10.0965 C   0  0  0  0  0  0  0  0  0  0  0  0
   -0.0035   32.9203  -12.1266 C   0  0  0  0  0  0  0  0  0  0  0  0
    0.3117   34.2795  -12.1487 C   0  0  0  0  0  0  0  0  0  0  0  0
    1.4251   34.7485  -11.4244 C   0  0  0  0  0  0  0  0  0  0  0  0
    4.5023   29.0661   -8.5408 C   0  0  0  0  0  0  0  0  0  0  0  0
    4.5277   28.5160   -6.1361 C   0  0  2  0  0  0  0  0  0  0  0  0
    5.8772   27.7822   -5.5050 C   0  0  0  0  0  0  0  0  0  0  0  0
    6.2525   26.7107   -6.5620 C   0  0  0  0  0  0  0  0  0  0  0  0
    1.7399   30.2029  -10.4492 C   0  0  0  0  0  0  0  0  0  0  0  0
   -1.0723   32.4520  -12.8205 F   0  0  0  0  0  0  0  0  0  0  0  0
    4.7666   28.3815   -7.3856 N   0  0  0  0  0  0  0  0  0  0  0  0
    3.9537   30.9421   -6.8379 N   0  0  0  0  0  0  0  0  0  0  0  0
    0.7364   30.6275  -11.2375 N   0  0  0  0  0  0  0  0  0  0  0  0
    4.6972   30.4084   -4.6190 O   0  0  0  0  0  0  0  0  0  0  0  0
    2.6208   29.8802   -8.1508 H   0  0  0  0  0  0  0  0  0  0  0  0
    3.0889   34.2154  -10.1297 H   0  0  0  0  0  0  0  0  0  0  0  0
    6.4982   27.3555   -8.5213 H   0  0  0  0  0  0  0  0  0  0  0  0
    5.1612   26.2628   -8.3107 H   0  0  0  0  0  0  0  0  0  0  0  0
    3.8659   32.3727   -8.7375 H   0  0  0  0  0  0  0  0  0  0  0  0
    4.6881   31.2532   -9.8361 H   0  0  0  0  0  0  0  0  0  0  0  0
   -0.3059   34.9809  -12.7287 H   0  0  0  0  0  0  0  0  0  0  0  0
    1.6699   35.8209  -11.4272 H   0  0  0  0  0  0  0  0  0  0  0  0
    3.5675   28.0926   -5.8063 H   0  0  0  0  0  0  0  0  0  0  0  0
    6.6935   28.5084   -5.3778 H   0  0  0  0  0  0  0  0  0  0  0  0
    5.6967   27.3494   -4.5099 H   0  0  0  0  0  0  0  0  0  0  0  0
    5.8476   25.7351   -6.2549 H   0  0  0  0  0  0  0  0  0  0  0  0
    7.3475   26.6440   -6.6436 H   0  0  0  0  0  0  0  0  0  0  0  0
    1.9320   29.1650  -10.1395 H   0  0  0  0  0  0  0  0  0  0  0  0
    3.8546   31.9563   -6.6878 H   0  0  0  0  0  0  0  0  0  0  0  0
    0.0172   30.0201  -11.6556 H   0  0  0  0  0  0  0  0  0  0  0  0
  1  8  1  0
  1 13  1  0
  1 20  1  0
  2  4  1  0
  2 10  2  0
  2 21  1  0
  3  4  2  0
  3 12  1  0
  4  9  1  0
  5 13  2  0
  6 16  1  0
  6 19  1  0
  7 14  1  0
  7 20  1  0
  7 22  2  0
  8  9  1  0
  9 17  2  0
 10 11  1  0
 10 18  1  0
 11 12  2  0
 13 19  1  0
 14 15  1  0
 14 19  1  0
 15 16  1  0
 17 21  1  0
  1 23  1  1
  3 24  1  0
  6 25  1  0
  6 26  1  0
  8 27  1  0
  8 28  1  0
 11 29  1  0
 12 30  1  0
 14 31  1  1
 15 32  1  0
 15 33  1  0
 16 34  1  0
 16 35  1  0
 17 36  1  0
 20 37  1  0
 21 38  1  0
M  END
>  <filename_input>  (16) 
8HO0_3ZI_docked.sdf

>  <pdb_id>  (16) 
8HO0_3ZI

>  <pose_rank>  (16) 
15

>  <num_atoms_heavy>  (16) 
22

>  <num_torsions>  (16) 
2

>  <pose>  (16) 
[3.6392312380265706, 30.294353194511707, -8.187787582358467, 0.6290203234603373, 0.7167649101936968, -0.6763458826498508, -1.3248159837333549, -2.4972774495665706]

>  <energy>  (16) 
-493.41340755263224

>  <inter_energy>  (16) 
-496.53557463571246

>  <intra_energy>  (16) 
2.92351404219652

>  <rmsd>  (16) 
3.87189

>  <sdf_rank>  (16) 
0

$$$$

     RDKit          3D

 38 41  0  0  0  0  0  0  0  0999 V2000
    5.7405   26.2829   -5.8797 C   0  0  1  0  0  0  0  0  0  0  0  0
    5.5008   30.2971   -3.7580 C   0  0  0  0  0  0  0  0  0  0  0  0
    3.7949   30.2284   -5.4903 C   0  0  0  0  0  0  0  0  0  0  0  0
    4.9786   29.7183   -4.8930 C   0  0  0  0  0  0  0  0  0  0  0  0
    3.4247   25.9047   -6.4187 O   0  0  0  0  0  0  0  0  0  0  0  0
    3.4972   23.2357   -6.5920 C   0  0  0  0  0  0  0  0  0  0  0  0
    7.1942   24.1919   -6.4808 C   0  0  0  0  0  0  0  0  0  0  0  0
    5.6213   27.6915   -6.4311 C   0  0  0  0  0  0  0  0  0  0  0  0
    5.8503   28.6446   -5.2226 C   0  0  0  0  0  0  0  0  0  0  0  0
    4.8421   31.4219   -3.1813 C   0  0  0  0  0  0  0  0  0  0  0  0
    3.6657   31.9198   -3.7428 C   0  0  0  0  0  0  0  0  0  0  0  0
    3.1440   31.3256   -4.9085 C   0  0  0  0  0  0  0  0  0  0  0  0
    4.4985   25.4355   -6.2230 C   0  0  0  0  0  0  0  0  0  0  0  0
    5.9293   23.4359   -6.0226 C   0  0  2  0  0  0  0  0  0  0  0  0
    5.6056   22.1288   -6.9945 C   0  0  0  0  0  0  0  0  0  0  0  0
    4.0605   21.9994   -6.9495 C   0  0  0  0  0  0  0  0  0  0  0  0
    6.8750   28.6079   -4.2706 C   0  0  0  0  0  0  0  0  0  0  0  0
    5.3572   31.9824   -2.0572 F   0  0  0  0  0  0  0  0  0  0  0  0
    4.8611   24.1160   -6.2032 N   0  0  0  0  0  0  0  0  0  0  0  0
    7.0677   25.7309   -6.4036 N   0  0  0  0  0  0  0  0  0  0  0  0
    6.6447   29.6058   -3.3988 N   0  0  0  0  0  0  0  0  0  0  0  0
    8.1943   23.6648   -6.8767 O   0  0  0  0  0  0  0  0  0  0  0  0
    5.7599   26.2614   -4.7801 H   0  0  0  0  0  0  0  0  0  0  0  0
    3.3917   29.7657   -6.4032 H   0  0  0  0  0  0  0  0  0  0  0  0
    2.9520   23.6883   -7.4334 H   0  0  0  0  0  0  0  0  0  0  0  0
    2.7542   23.1752   -5.7831 H   0  0  0  0  0  0  0  0  0  0  0  0
    6.3836   27.8650   -7.2049 H   0  0  0  0  0  0  0  0  0  0  0  0
    4.6395   27.8603   -6.8977 H   0  0  0  0  0  0  0  0  0  0  0  0
    3.1485   32.7719   -3.2776 H   0  0  0  0  0  0  0  0  0  0  0  0
    2.2245   31.7229   -5.3631 H   0  0  0  0  0  0  0  0  0  0  0  0
    6.1454   23.1950   -4.9712 H   0  0  0  0  0  0  0  0  0  0  0  0
    5.9527   22.3107   -8.0224 H   0  0  0  0  0  0  0  0  0  0  0  0
    6.1164   21.2147   -6.6578 H   0  0  0  0  0  0  0  0  0  0  0  0
    3.7777   21.2390   -6.2066 H   0  0  0  0  0  0  0  0  0  0  0  0
    3.6886   21.6999   -7.9405 H   0  0  0  0  0  0  0  0  0  0  0  0
    7.7127   27.8957   -4.2408 H   0  0  0  0  0  0  0  0  0  0  0  0
    7.8374   26.3526   -6.6901 H   0  0  0  0  0  0  0  0  0  0  0  0
    7.2340   29.8237   -2.5825 H   0  0  0  0  0  0  0  0  0  0  0  0
  1  8  1  0
  1 13  1  0
  1 20  1  0
  2  4  1  0
  2 10  2  0
  2 21  1  0
  3  4  2  0
  3 12  1  0
  4  9  1  0
  5 13  2  0
  6 16  1  0
  6 19  1  0
  7 14  1  0
  7 20  1  0
  7 22  2  0
  8  9  1  0
  9 17  2  0
 10 11  1  0
 10 18  1  0
 11 12  2  0
 13 19  1  0
 14 15  1  0
 14 19  1  0
 15 16  1  0
 17 21  1  0
  1 23  1  1
  3 24  1  0
  6 25  1  0
  6 26  1  0
  8 27  1  0
  8 28  1  0
 11 29  1  0
 12 30  1  0
 14 31  1  1
 15 32  1  0
 15 33  1  0
 16 34  1  0
 16 35  1  0
 17 36  1  0
 20 37  1  0
 21 38  1  0
M  END
>  <filename_input>  (17) 
8HO0_3ZI_docked.sdf

>  <pdb_id>  (17) 
8HO0_3ZI

>  <pose_rank>  (17) 
16

>  <num_atoms_heavy>  (17) 
22

>  <num_torsions>  (17) 
2

>  <pose>  (17) 
[5.740489426892275, 26.28287421773798, -5.879741389002091, 0.552412818958913, 2.084980657981512, -1.9709616825752387, 5.360524848150642, -7.350546168977137]

>  <energy>  (17) 
-503.1519142960852

>  <inter_energy>  (17) 
-494.3474298321895

>  <intra_energy>  (17) 
0.38541886148998056

>  <rmsd>  (17) 
7.45733

>  <sdf_rank>  (17) 
0

$$$$

     RDKit          3D

 38 41  0  0  0  0  0  0  0  0999 V2000
    5.0970   28.0748   -6.5139 C   0  0  1  0  0  0  0  0  0  0  0  0
    5.6600   31.3778   -3.7796 C   0  0  0  0  0  0  0  0  0  0  0  0
    3.6270   31.0378   -5.0709 C   0  0  0  0  0  0  0  0  0  0  0  0
    5.0208   30.8440   -4.8762 C   0  0  0  0  0  0  0  0  0  0  0  0
    3.2468   28.5298   -7.9858 O   0  0  0  0  0  0  0  0  0  0  0  0
    2.4138   26.0135   -8.3516 C   0  0  0  0  0  0  0  0  0  0  0  0
    5.8042   25.5593   -6.6506 C   0  0  0  0  0  0  0  0  0  0  0  0
    5.7343   29.3850   -6.9376 C   0  0  0  0  0  0  0  0  0  0  0  0
    6.0227   30.1652   -5.6225 C   0  0  0  0  0  0  0  0  0  0  0  0
    4.9091   32.1341   -2.8332 C   0  0  0  0  0  0  0  0  0  0  0  0
    3.5351   32.3133   -2.9982 C   0  0  0  0  0  0  0  0  0  0  0  0
    2.8921   31.7698   -4.1275 C   0  0  0  0  0  0  0  0  0  0  0  0
    3.8941   27.7167   -7.4101 C   0  0  0  0  0  0  0  0  0  0  0  0
    4.2843   25.3533   -6.8203 C   0  0  2  0  0  0  0  0  0  0  0  0
    3.9424   24.1869   -7.9520 C   0  0  0  0  0  0  0  0  0  0  0  0
    2.5853   24.6342   -8.5558 C   0  0  0  0  0  0  0  0  0  0  0  0
    7.2403   30.3101   -4.9488 C   0  0  0  0  0  0  0  0  0  0  0  0
    5.5435   32.6502   -1.7496 F   0  0  0  0  0  0  0  0  0  0  0  0
    3.7118   26.3612   -7.3613 N   0  0  0  0  0  0  0  0  0  0  0  0
    6.2231   27.0395   -6.4950 N   0  0  0  0  0  0  0  0  0  0  0  0
    7.0001   31.0381   -3.8437 N   0  0  0  0  0  0  0  0  0  0  0  0
    6.6131   24.6759   -6.6473 O   0  0  0  0  0  0  0  0  0  0  0  0
    4.6515   28.1287   -5.5096 H   0  0  0  0  0  0  0  0  0  0  0  0
    3.1277   30.6163   -5.9558 H   0  0  0  0  0  0  0  0  0  0  0  0
    2.4691   26.5707   -9.2985 H   0  0  0  0  0  0  0  0  0  0  0  0
    1.4369   26.2882   -7.9271 H   0  0  0  0  0  0  0  0  0  0  0  0
    6.6705   29.1961   -7.4834 H   0  0  0  0  0  0  0  0  0  0  0  0
    5.0756   29.9556   -7.6089 H   0  0  0  0  0  0  0  0  0  0  0  0
    2.9571   32.8761   -2.2504 H   0  0  0  0  0  0  0  0  0  0  0  0
    1.8116   31.9199   -4.2696 H   0  0  0  0  0  0  0  0  0  0  0  0
    3.9439   25.1281   -5.7989 H   0  0  0  0  0  0  0  0  0  0  0  0
    4.7226   24.1533   -8.7266 H   0  0  0  0  0  0  0  0  0  0  0  0
    3.8998   23.1768   -7.5186 H   0  0  0  0  0  0  0  0  0  0  0  0
    1.7673   24.0864   -8.0651 H   0  0  0  0  0  0  0  0  0  0  0  0
    2.5753   24.4192   -9.6345 H   0  0  0  0  0  0  0  0  0  0  0  0
    8.2128   29.9042   -5.2641 H   0  0  0  0  0  0  0  0  0  0  0  0
    7.2096   27.3143   -6.3843 H   0  0  0  0  0  0  0  0  0  0  0  0
    7.7102   31.3041   -3.1466 H   0  0  0  0  0  0  0  0  0  0  0  0
  1  8  1  0
  1 13  1  0
  1 20  1  0
  2  4  1  0
  2 10  2  0
  2 21  1  0
  3  4  2  0
  3 12  1  0
  4  9  1  0
  5 13  2  0
  6 16  1  0
  6 19  1  0
  7 14  1  0
  7 20  1  0
  7 22  2  0
  8  9  1  0
  9 17  2  0
 10 11  1  0
 10 18  1  0
 11 12  2  0
 13 19  1  0
 14 15  1  0
 14 19  1  0
 15 16  1  0
 17 21  1  0
  1 23  1  1
  3 24  1  0
  6 25  1  0
  6 26  1  0
  8 27  1  0
  8 28  1  0
 11 29  1  0
 12 30  1  0
 14 31  1  1
 15 32  1  0
 15 33  1  0
 16 34  1  0
 16 35  1  0
 17 36  1  0
 20 37  1  0
 21 38  1  0
M  END
>  <filename_input>  (18) 
8HO0_3ZI_docked.sdf

>  <pdb_id>  (18) 
8HO0_3ZI

>  <pose_rank>  (18) 
17

>  <num_atoms_heavy>  (18) 
22

>  <num_torsions>  (18) 
2

>  <pose>  (18) 
[5.096971944261116, 28.074830118361874, -6.513941698844396, 1.3338173418647277, 1.8111652425633171, -1.8019137634241986, 5.5458704010920306, -6.426408113949954]

>  <energy>  (18) 
-499.33939627406454

>  <inter_energy>  (18) 
-502.4749313389126

>  <intra_energy>  (18) 
1.098640442271635

>  <rmsd>  (18) 
6.89566

>  <sdf_rank>  (18) 
0

$$$$

     RDKit          3D

 38 41  0  0  0  0  0  0  0  0999 V2000
    2.9656   27.6783   -8.9771 C   0  0  1  0  0  0  0  0  0  0  0  0
    0.8993   31.1522  -10.7503 C   0  0  0  0  0  0  0  0  0  0  0  0
    2.9876   31.4917   -9.5505 C   0  0  0  0  0  0  0  0  0  0  0  0
    2.0877   30.6552  -10.2637 C   0  0  0  0  0  0  0  0  0  0  0  0
    3.4365   25.5254   -9.9464 O   0  0  0  0  0  0  0  0  0  0  0  0
    3.9880   24.1962   -7.6906 C   0  0  0  0  0  0  0  0  0  0  0  0
    3.9273   27.8414   -6.5490 C   0  0  0  0  0  0  0  0  0  0  0  0
    3.3062   28.3313  -10.3037 C   0  0  0  0  0  0  0  0  0  0  0  0
    2.1180   29.2817  -10.6299 C   0  0  0  0  0  0  0  0  0  0  0  0
    0.5733   32.5223  -10.5312 C   0  0  0  0  0  0  0  0  0  0  0  0
    1.4576   33.3621   -9.8530 C   0  0  0  0  0  0  0  0  0  0  0  0
    2.6671   32.8422   -9.3522 C   0  0  0  0  0  0  0  0  0  0  0  0
    3.3627   26.1882   -8.9631 C   0  0  0  0  0  0  0  0  0  0  0  0
    3.5179   26.3542   -6.5067 C   0  0  2  0  0  0  0  0  0  0  0  0
    4.6472   25.4255   -5.7191 C   0  0  0  0  0  0  0  0  0  0  0  0
    4.5440   24.0405   -6.4099 C   0  0  0  0  0  0  0  0  0  0  0  0
    0.9423   28.9921  -11.3307 C   0  0  0  0  0  0  0  0  0  0  0  0
   -0.5958   33.0081  -11.0212 F   0  0  0  0  0  0  0  0  0  0  0  0
    3.5473   25.8059   -7.6620 N   0  0  0  0  0  0  0  0  0  0  0  0
    3.6276   28.5365   -7.8972 N   0  0  0  0  0  0  0  0  0  0  0  0
    0.2263   30.1288  -11.3949 N   0  0  0  0  0  0  0  0  0  0  0  0
    4.4429   28.4299   -5.6421 O   0  0  0  0  0  0  0  0  0  0  0  0
    1.8824   27.6487   -8.7882 H   0  0  0  0  0  0  0  0  0  0  0  0
    3.9296   31.0825   -9.1564 H   0  0  0  0  0  0  0  0  0  0  0  0
    4.7290   23.9954   -8.4785 H   0  0  0  0  0  0  0  0  0  0  0  0
    3.1598   23.5061   -7.9092 H   0  0  0  0  0  0  0  0  0  0  0  0
    4.2417   28.9036  -10.2193 H   0  0  0  0  0  0  0  0  0  0  0  0
    3.4530   27.5824  -11.0960 H   0  0  0  0  0  0  0  0  0  0  0  0
    1.2113   34.4247   -9.7101 H   0  0  0  0  0  0  0  0  0  0  0  0
    3.3614   33.4967   -8.8048 H   0  0  0  0  0  0  0  0  0  0  0  0
    2.5232   26.3788   -6.0377 H   0  0  0  0  0  0  0  0  0  0  0  0
    5.6551   25.8489   -5.8411 H   0  0  0  0  0  0  0  0  0  0  0  0
    4.4687   25.3716   -4.6350 H   0  0  0  0  0  0  0  0  0  0  0  0
    3.9027   23.3783   -5.8098 H   0  0  0  0  0  0  0  0  0  0  0  0
    5.5476   23.5986   -6.4972 H   0  0  0  0  0  0  0  0  0  0  0  0
    0.6567   28.0165  -11.7510 H   0  0  0  0  0  0  0  0  0  0  0  0
    3.8615   29.5262   -8.0600 H   0  0  0  0  0  0  0  0  0  0  0  0
   -0.6895   30.2240  -11.8565 H   0  0  0  0  0  0  0  0  0  0  0  0
  1  8  1  0
  1 13  1  0
  1 20  1  0
  2  4  1  0
  2 10  2  0
  2 21  1  0
  3  4  2  0
  3 12  1  0
  4  9  1  0
  5 13  2  0
  6 16  1  0
  6 19  1  0
  7 14  1  0
  7 20  1  0
  7 22  2  0
  8  9  1  0
  9 17  2  0
 10 11  1  0
 10 18  1  0
 11 12  2  0
 13 19  1  0
 14 15  1  0
 14 19  1  0
 15 16  1  0
 17 21  1  0
  1 23  1  1
  3 24  1  0
  6 25  1  0
  6 26  1  0
  8 27  1  0
  8 28  1  0
 11 29  1  0
 12 30  1  0
 14 31  1  1
 15 32  1  0
 15 33  1  0
 16 34  1  0
 16 35  1  0
 17 36  1  0
 20 37  1  0
 21 38  1  0
M  END
>  <filename_input>  (19) 
8HO0_3ZI_docked.sdf

>  <pdb_id>  (19) 
8HO0_3ZI

>  <pose_rank>  (19) 
18

>  <num_atoms_heavy>  (19) 
22

>  <num_torsions>  (19) 
2

>  <pose>  (19) 
[2.9656491120426622, 27.67831173420962, -8.977050980890105, 0.4454945894279114, 0.5726286882071634, -1.0939527738637793, -0.6756534035775598, -3.4716592224543663]

>  <energy>  (19) 
-508.0143950840037

>  <inter_energy>  (19) 
-518.7605828180587

>  <intra_energy>  (19) 
2.800529562068331

>  <rmsd>  (19) 
4.80604

>  <sdf_rank>  (19) 
0

$$$$

     RDKit          3D

 38 41  0  0  0  0  0  0  0  0999 V2000
    2.0421   31.8412  -10.2458 C   0  0  1  0  0  0  0  0  0  0  0  0
   -1.5102   33.0519  -12.9439 C   0  0  0  0  0  0  0  0  0  0  0  0
    0.3179   34.5188  -13.5935 C   0  0  0  0  0  0  0  0  0  0  0  0
   -0.1820   33.4064  -12.8649 C   0  0  0  0  0  0  0  0  0  0  0  0
    1.9741   29.6739  -11.2922 O   0  0  0  0  0  0  0  0  0  0  0  0
    3.1939   28.2741   -9.3655 C   0  0  0  0  0  0  0  0  0  0  0  0
    3.8164   31.8965   -8.3235 C   0  0  0  0  0  0  0  0  0  0  0  0
    1.9342   32.4867  -11.6148 C   0  0  0  0  0  0  0  0  0  0  0  0
    0.4203   32.4758  -11.9746 C   0  0  0  0  0  0  0  0  0  0  0  0
   -2.3890   33.8149  -13.7668 C   0  0  0  0  0  0  0  0  0  0  0  0
   -1.9081   34.8958  -14.5068 C   0  0  0  0  0  0  0  0  0  0  0  0
   -0.5493   35.2552  -14.4130 C   0  0  0  0  0  0  0  0  0  0  0  0
    2.3058   30.3257  -10.3558 C   0  0  0  0  0  0  0  0  0  0  0  0
    3.3395   30.4432   -8.1190 C   0  0  2  0  0  0  0  0  0  0  0  0
    4.6030   29.4218   -7.7750 C   0  0  0  0  0  0  0  0  0  0  0  0
    4.1572   28.0586   -8.3659 C   0  0  0  0  0  0  0  0  0  0  0  0
   -0.5676   31.5838  -11.5436 C   0  0  0  0  0  0  0  0  0  0  0  0
   -3.6955   33.4547  -13.8471 F   0  0  0  0  0  0  0  0  0  0  0  0
    2.9136   29.9115   -9.2017 N   0  0  0  0  0  0  0  0  0  0  0  0
    3.1078   32.6318   -9.4845 N   0  0  0  0  0  0  0  0  0  0  0  0
   -1.7180   31.9449  -12.1395 N   0  0  0  0  0  0  0  0  0  0  0  0
    4.6641   32.4316   -7.6680 O   0  0  0  0  0  0  0  0  0  0  0  0
    1.0986   31.8891   -9.6823 H   0  0  0  0  0  0  0  0  0  0  0  0
    1.3784   34.8005  -13.5153 H   0  0  0  0  0  0  0  0  0  0  0  0
    3.5876   28.0308  -10.3634 H   0  0  0  0  0  0  0  0  0  0  0  0
    2.2932   27.6506   -9.2652 H   0  0  0  0  0  0  0  0  0  0  0  0
    2.3119   33.5193  -11.5815 H   0  0  0  0  0  0  0  0  0  0  0  0
    2.5308   31.9458  -12.3640 H   0  0  0  0  0  0  0  0  0  0  0  0
   -2.5865   35.4643  -15.1599 H   0  0  0  0  0  0  0  0  0  0  0  0
   -0.1681   36.1149  -14.9835 H   0  0  0  0  0  0  0  0  0  0  0  0
    2.5825   30.5345   -7.3262 H   0  0  0  0  0  0  0  0  0  0  0  0
    5.5295   29.7711   -8.2542 H   0  0  0  0  0  0  0  0  0  0  0  0
    4.8197   29.3651   -6.6980 H   0  0  0  0  0  0  0  0  0  0  0  0
    3.7249   27.4369   -7.5681 H   0  0  0  0  0  0  0  0  0  0  0  0
    5.0275   27.5449   -8.8002 H   0  0  0  0  0  0  0  0  0  0  0  0
   -0.4293   30.7438  -10.8471 H   0  0  0  0  0  0  0  0  0  0  0  0
    3.3413   33.6038   -9.7325 H   0  0  0  0  0  0  0  0  0  0  0  0
   -2.6220   31.4672  -12.0154 H   0  0  0  0  0  0  0  0  0  0  0  0
  1  8  1  0
  1 13  1  0
  1 20  1  0
  2  4  1  0
  2 10  2  0
  2 21  1  0
  3  4  2  0
  3 12  1  0
  4  9  1  0
  5 13  2  0
  6 16  1  0
  6 19  1  0
  7 14  1  0
  7 20  1  0
  7 22  2  0
  8  9  1  0
  9 17  2  0
 10 11  1  0
 10 18  1  0
 11 12  2  0
 13 19  1  0
 14 15  1  0
 14 19  1  0
 15 16  1  0
 17 21  1  0
  1 23  1  1
  3 24  1  0
  6 25  1  0
  6 26  1  0
  8 27  1  0
  8 28  1  0
 11 29  1  0
 12 30  1  0
 14 31  1  1
 15 32  1  0
 15 33  1  0
 16 34  1  0
 16 35  1  0
 17 36  1  0
 20 37  1  0
 21 38  1  0
M  END
>  <filename_input>  (20) 
8HO0_3ZI_docked.sdf

>  <pdb_id>  (20) 
8HO0_3ZI

>  <pose_rank>  (20) 
19

>  <num_atoms_heavy>  (20) 
22

>  <num_torsions>  (20) 
2

>  <pose>  (20) 
[2.042071300918243, 31.841161851063895, -10.2458494263121, 0.269818200399513, 0.8827939103066014, -1.2580632943912737, -1.5055216912908522, -2.393115578007031]

>  <energy>  (20) 
-413.30665498397343

>  <inter_energy>  (20) 
-435.152450587987

>  <intra_energy>  (20) 
14.17800653963338

>  <rmsd>  (20) 
5.88894

>  <sdf_rank>  (20) 
0

$$$$

     RDKit          3D

 38 41  0  0  0  0  0  0  0  0999 V2000
   -1.0407   33.4942  -12.8112 C   0  0  1  0  0  0  0  0  0  0  0  0
    1.7479   30.8404  -10.2239 C   0  0  0  0  0  0  0  0  0  0  0  0
    0.5489   29.2529  -11.6231 C   0  0  0  0  0  0  0  0  0  0  0  0
    0.8542   30.5864  -11.2401 C   0  0  0  0  0  0  0  0  0  0  0  0
    1.0776   34.1486  -13.7500 O   0  0  0  0  0  0  0  0  0  0  0  0
    0.3298   36.4944  -14.7977 C   0  0  0  0  0  0  0  0  0  0  0  0
   -2.9995   34.8614  -13.8792 C   0  0  0  0  0  0  0  0  0  0  0  0
   -0.5988   32.0437  -12.8686 C   0  0  0  0  0  0  0  0  0  0  0  0
    0.4079   31.8567  -11.6969 C   0  0  0  0  0  0  0  0  0  0  0  0
    2.3694   29.7483   -9.5512 C   0  0  0  0  0  0  0  0  0  0  0  0
    2.0976   28.4335   -9.9316 C   0  0  0  0  0  0  0  0  0  0  0  0
    1.1759   28.1841  -10.9671 C   0  0  0  0  0  0  0  0  0  0  0  0
   -0.0689   34.4110  -13.5816 C   0  0  0  0  0  0  0  0  0  0  0  0
   -1.9440   35.9871  -13.8746 C   0  0  2  0  0  0  0  0  0  0  0  0
   -2.0057   36.8965  -15.2629 C   0  0  0  0  0  0  0  0  0  0  0  0
   -0.5420   37.3664  -15.4708 C   0  0  0  0  0  0  0  0  0  0  0  0
    1.0506   32.8420  -10.9395 C   0  0  0  0  0  0  0  0  0  0  0  0
    3.2563   30.0057   -8.5561 F   0  0  0  0  0  0  0  0  0  0  0  0
   -0.7493   35.5374  -13.9575 N   0  0  0  0  0  0  0  0  0  0  0  0
   -2.4876   33.5190  -13.3077 N   0  0  0  0  0  0  0  0  0  0  0  0
    1.8529   32.2111  -10.0636 N   0  0  0  0  0  0  0  0  0  0  0  0
   -4.1177   34.9806  -14.2917 O   0  0  0  0  0  0  0  0  0  0  0  0
   -1.0117   33.9031  -11.7905 H   0  0  0  0  0  0  0  0  0  0  0  0
   -0.1747   29.0602  -12.4290 H   0  0  0  0  0  0  0  0  0  0  0  0
    0.9298   35.9008  -15.5032 H   0  0  0  0  0  0  0  0  0  0  0  0
    1.0721   37.0005  -14.1630 H   0  0  0  0  0  0  0  0  0  0  0  0
   -1.4631   31.3754  -12.7406 H   0  0  0  0  0  0  0  0  0  0  0  0
   -0.1395   31.8000  -13.8379 H   0  0  0  0  0  0  0  0  0  0  0  0
    2.6005   27.5963   -9.4255 H   0  0  0  0  0  0  0  0  0  0  0  0
    0.9476   27.1491  -11.2616 H   0  0  0  0  0  0  0  0  0  0  0  0
   -2.1626   36.5351  -12.9463 H   0  0  0  0  0  0  0  0  0  0  0  0
   -2.3453   36.2879  -16.1139 H   0  0  0  0  0  0  0  0  0  0  0  0
   -2.7125   37.7359  -15.1874 H   0  0  0  0  0  0  0  0  0  0  0  0
   -0.4234   38.3842  -15.0710 H   0  0  0  0  0  0  0  0  0  0  0  0
   -0.3054   37.3645  -16.5450 H   0  0  0  0  0  0  0  0  0  0  0  0
    0.9235   33.9298  -11.0414 H   0  0  0  0  0  0  0  0  0  0  0  0
   -3.0897   32.6845  -13.2634 H   0  0  0  0  0  0  0  0  0  0  0  0
    2.4574   32.6799   -9.3738 H   0  0  0  0  0  0  0  0  0  0  0  0
  1  8  1  0
  1 13  1  0
  1 20  1  0
  2  4  1  0
  2 10  2  0
  2 21  1  0
  3  4  2  0
  3 12  1  0
  4  9  1  0
  5 13  2  0
  6 16  1  0
  6 19  1  0
  7 14  1  0
  7 20  1  0
  7 22  2  0
  8  9  1  0
  9 17  2  0
 10 11  1  0
 10 18  1  0
 11 12  2  0
 13 19  1  0
 14 15  1  0
 14 19  1  0
 15 16  1  0
 17 21  1  0
  1 23  1  1
  3 24  1  0
  6 25  1  0
  6 26  1  0
  8 27  1  0
  8 28  1  0
 11 29  1  0
 12 30  1  0
 14 31  1  1
 15 32  1  0
 15 33  1  0
 16 34  1  0
 16 35  1  0
 17 36  1  0
 20 37  1  0
 21 38  1  0
M  END
>  <filename_input>  (21) 
8HO0_3ZI_docked.sdf

>  <pdb_id>  (21) 
8HO0_3ZI

>  <pose_rank>  (21) 
20

>  <num_atoms_heavy>  (21) 
22

>  <num_torsions>  (21) 
2

>  <pose>  (21) 
[-1.040667171067437, 33.494200922374446, -12.81123863030714, 4.038231614094078, -0.7259351661111595, -0.911933740184304, -14.1871452749953, -2.1669261153899355]

>  <energy>  (21) 
-399.79380778504145

>  <inter_energy>  (21) 
-419.00616466711386

>  <intra_energy>  (21) 
22.02507788519169

>  <rmsd>  (21) 
9.19135

>  <sdf_rank>  (21) 
0

$$$$

     RDKit          3D

 38 41  0  0  0  0  0  0  0  0999 V2000
   11.1606   32.1617  -15.1140 C   0  0  1  0  0  0  0  0  0  0  0  0
   11.5336   27.6621  -14.7534 C   0  0  0  0  0  0  0  0  0  0  0  0
   10.7391   28.3162  -16.9572 C   0  0  0  0  0  0  0  0  0  0  0  0
   11.3635   28.6281  -15.7199 C   0  0  0  0  0  0  0  0  0  0  0  0
   13.0343   33.6726  -15.1704 O   0  0  0  0  0  0  0  0  0  0  0  0
   11.7073   35.9534  -14.7277 C   0  0  0  0  0  0  0  0  0  0  0  0
    8.9079   33.4528  -15.4381 C   0  0  0  0  0  0  0  0  0  0  0  0
   11.9528   31.1749  -15.9513 C   0  0  0  0  0  0  0  0  0  0  0  0
   11.9072   29.8250  -15.1784 C   0  0  0  0  0  0  0  0  0  0  0  0
   11.0744   26.3361  -15.0028 C   0  0  0  0  0  0  0  0  0  0  0  0
   10.4804   26.0087  -16.2223 C   0  0  0  0  0  0  0  0  0  0  0  0
   10.3038   27.0059  -17.2014 C   0  0  0  0  0  0  0  0  0  0  0  0
   11.8608   33.5341  -15.0464 C   0  0  0  0  0  0  0  0  0  0  0  0
    9.6459   34.5328  -14.6194 C   0  0  2  0  0  0  0  0  0  0  0  0
    9.3404   36.0601  -15.1956 C   0  0  0  0  0  0  0  0  0  0  0  0
   10.6359   36.8502  -14.8738 C   0  0  0  0  0  0  0  0  0  0  0  0
   12.3921   29.5420  -13.8969 C   0  0  0  0  0  0  0  0  0  0  0  0
   11.2532   25.3864  -14.0493 F   0  0  0  0  0  0  0  0  0  0  0  0
   10.9142   34.4856  -14.7789 N   0  0  0  0  0  0  0  0  0  0  0  0
    9.7482   32.1820  -15.7017 N   0  0  0  0  0  0  0  0  0  0  0  0
   12.1613   28.2380  -13.6625 N   0  0  0  0  0  0  0  0  0  0  0  0
    7.7909   33.5627  -15.8562 O   0  0  0  0  0  0  0  0  0  0  0  0
   11.0980   31.8623  -14.0574 H   0  0  0  0  0  0  0  0  0  0  0  0
   10.5980   29.0975  -17.7186 H   0  0  0  0  0  0  0  0  0  0  0  0
   12.4289   36.0502  -15.5523 H   0  0  0  0  0  0  0  0  0  0  0  0
   12.3058   36.1107  -13.8182 H   0  0  0  0  0  0  0  0  0  0  0  0
   11.4947   31.0622  -16.9450 H   0  0  0  0  0  0  0  0  0  0  0  0
   12.9869   31.5162  -16.1063 H   0  0  0  0  0  0  0  0  0  0  0  0
   10.1518   24.9774  -16.4181 H   0  0  0  0  0  0  0  0  0  0  0  0
    9.8236   26.7563  -18.1591 H   0  0  0  0  0  0  0  0  0  0  0  0
    9.3075   34.3449  -13.5897 H   0  0  0  0  0  0  0  0  0  0  0  0
    9.1548   36.0388  -16.2796 H   0  0  0  0  0  0  0  0  0  0  0  0
    8.4459   36.5120  -14.7422 H   0  0  0  0  0  0  0  0  0  0  0  0
   10.4991   37.4135  -13.9389 H   0  0  0  0  0  0  0  0  0  0  0  0
   10.8524   37.5495  -15.6949 H   0  0  0  0  0  0  0  0  0  0  0  0
   12.8727   30.2535  -13.2093 H   0  0  0  0  0  0  0  0  0  0  0  0
    9.3763   31.3898  -16.2449 H   0  0  0  0  0  0  0  0  0  0  0  0
   12.4147   27.7402  -12.7971 H   0  0  0  0  0  0  0  0  0  0  0  0
  1  8  1  0
  1 13  1  0
  1 20  1  0
  2  4  1  0
  2 10  2  0
  2 21  1  0
  3  4  2  0
  3 12  1  0
  4  9  1  0
  5 13  2  0
  6 16  1  0
  6 19  1  0
  7 14  1  0
  7 20  1  0
  7 22  2  0
  8  9  1  0
  9 17  2  0
 10 11  1  0
 10 18  1  0
 11 12  2  0
 13 19  1  0
 14 15  1  0
 14 19  1  0
 15 16  1  0
 17 21  1  0
  1 23  1  1
  3 24  1  0
  6 25  1  0
  6 26  1  0
  8 27  1  0
  8 28  1  0
 11 29  1  0
 12 30  1  0
 14 31  1  1
 15 32  1  0
 15 33  1  0
 16 34  1  0
 16 35  1  0
 17 36  1  0
 20 37  1  0
 21 38  1  0
M  END
>  <filename_input>  (22) 
8HO0_3ZI_docked.sdf

>  <pdb_id>  (22) 
8HO0_3ZI

>  <pose_rank>  (22) 
21

>  <num_atoms_heavy>  (22) 
22

>  <num_torsions>  (22) 
2

>  <pose>  (22) 
[11.160621576098126, 32.16169590204242, -15.114011439424296, 4.4087963764646565, 0.2649844040954113, -1.758309787187577, -7.0017784546197515, 3.300669922055352]

>  <energy>  (22) 
-209.28807310920905

>  <inter_energy>  (22) 
-199.93897444851265

>  <intra_energy>  (22) 
0.0

>  <rmsd>  (22) 
11.6407

>  <sdf_rank>  (22) 
0

$$$$

     RDKit          3D

 38 41  0  0  0  0  0  0  0  0999 V2000
   -2.5061   39.2254   -1.1404 C   0  0  1  0  0  0  0  0  0  0  0  0
   -2.0082   39.1149   -5.6399 C   0  0  0  0  0  0  0  0  0  0  0  0
   -0.2331   40.4493   -4.6478 C   0  0  0  0  0  0  0  0  0  0  0  0
   -1.5021   39.8158   -4.5681 C   0  0  0  0  0  0  0  0  0  0  0  0
   -0.1361   38.8049   -1.1931 O   0  0  0  0  0  0  0  0  0  0  0  0
    0.0978   37.6018    1.1853 C   0  0  0  0  0  0  0  0  0  0  0  0
   -3.4313   39.0602    1.3016 C   0  0  0  0  0  0  0  0  0  0  0  0
   -2.3101   40.3580   -2.1309 C   0  0  0  0  0  0  0  0  0  0  0  0
   -2.4827   39.7263   -3.5425 C   0  0  0  0  0  0  0  0  0  0  0  0
   -1.2456   39.0290   -6.8410 C   0  0  0  0  0  0  0  0  0  0  0  0
    0.0127   39.6260   -6.9266 C   0  0  0  0  0  0  0  0  0  0  0  0
    0.5180   40.3474   -5.8273 C   0  0  0  0  0  0  0  0  0  0  0  0
   -1.1578   38.7144   -0.5935 C   0  0  0  0  0  0  0  0  0  0  0  0
   -2.3753   37.9400    1.4075 C   0  0  2  0  0  0  0  0  0  0  0  0
   -1.5921   37.9666    2.8717 C   0  0  0  0  0  0  0  0  0  0  0  0
   -0.1758   37.4210    2.5513 C   0  0  0  0  0  0  0  0  0  0  0  0
   -3.5539   38.9693   -4.0293 C   0  0  0  0  0  0  0  0  0  0  0  0
   -1.7463   38.3290   -7.8910 F   0  0  0  0  0  0  0  0  0  0  0  0
   -1.3830   38.1277    0.6223 N   0  0  0  0  0  0  0  0  0  0  0  0
   -3.4795   39.7482   -0.0822 N   0  0  0  0  0  0  0  0  0  0  0  0
   -3.2477   38.6092   -5.2884 N   0  0  0  0  0  0  0  0  0  0  0  0
   -4.1545   39.3983    2.1945 O   0  0  0  0  0  0  0  0  0  0  0  0
   -2.9411   38.3290   -1.6066 H   0  0  0  0  0  0  0  0  0  0  0  0
    0.1576   41.0160   -3.7898 H   0  0  0  0  0  0  0  0  0  0  0  0
    0.8803   38.3587    1.0280 H   0  0  0  0  0  0  0  0  0  0  0  0
    0.4787   36.7025    0.6792 H   0  0  0  0  0  0  0  0  0  0  0  0
   -3.0636   41.1428   -1.9684 H   0  0  0  0  0  0  0  0  0  0  0  0
   -1.3217   40.8271   -2.0170 H   0  0  0  0  0  0  0  0  0  0  0  0
    0.6070   39.5338   -7.8477 H   0  0  0  0  0  0  0  0  0  0  0  0
    1.5034   40.8316   -5.8944 H   0  0  0  0  0  0  0  0  0  0  0  0
   -2.9536   37.0269    1.2028 H   0  0  0  0  0  0  0  0  0  0  0  0
   -1.5359   38.9919    3.2662 H   0  0  0  0  0  0  0  0  0  0  0  0
   -2.1102   37.3729    3.6392 H   0  0  0  0  0  0  0  0  0  0  0  0
   -0.1318   36.3494    2.7954 H   0  0  0  0  0  0  0  0  0  0  0  0
    0.5704   37.9643    3.1497 H   0  0  0  0  0  0  0  0  0  0  0  0
   -4.4749   38.7159   -3.4839 H   0  0  0  0  0  0  0  0  0  0  0  0
   -4.1333   40.5187   -0.2814 H   0  0  0  0  0  0  0  0  0  0  0  0
   -3.8482   38.0400   -5.9019 H   0  0  0  0  0  0  0  0  0  0  0  0
  1  8  1  0
  1 13  1  0
  1 20  1  0
  2  4  1  0
  2 10  2  0
  2 21  1  0
  3  4  2  0
  3 12  1  0
  4  9  1  0
  5 13  2  0
  6 16  1  0
  6 19  1  0
  7 14  1  0
  7 20  1  0
  7 22  2  0
  8  9  1  0
  9 17  2  0
 10 11  1  0
 10 18  1  0
 11 12  2  0
 13 19  1  0
 14 15  1  0
 14 19  1  0
 15 16  1  0
 17 21  1  0
  1 23  1  6
  3 24  1  0
  6 25  1  0
  6 26  1  0
  8 27  1  0
  8 28  1  0
 11 29  1  0
 12 30  1  0
 14 31  1  6
 15 32  1  0
 15 33  1  0
 16 34  1  0
 16 35  1  0
 17 36  1  0
 20 37  1  0
 21 38  1  0
M  END
>  <filename_input>  (23) 
8HO0_3ZI_docked.sdf

>  <pdb_id>  (23) 
8HO0_3ZI

>  <pose_rank>  (23) 
22

>  <num_atoms_heavy>  (23) 
22

>  <num_torsions>  (23) 
2

>  <pose>  (23) 
[-2.5061215695122194, 39.22539766892131, -1.1404167983318916, -5.287928861720306, -2.015856678784707, -0.9261466867168412, -1.3462525739617732, -0.9763470154573659]

>  <energy>  (23) 
-165.92865128324516

>  <inter_energy>  (23) 
-160.24012442875147

>  <intra_energy>  (23) 
0.7111925201874174

>  <rmsd>  (23) 
11.7388

>  <sdf_rank>  (23) 
0

$$$$

     RDKit          3D

 38 41  0  0  0  0  0  0  0  0999 V2000
   -4.1084   38.2580   -4.0752 C   0  0  1  0  0  0  0  0  0  0  0  0
   -3.1487   36.9386    0.0657 C   0  0  0  0  0  0  0  0  0  0  0  0
   -5.2199   36.0334   -0.8326 C   0  0  0  0  0  0  0  0  0  0  0  0
   -4.1860   37.0077   -0.8372 C   0  0  0  0  0  0  0  0  0  0  0  0
   -6.1138   37.2503   -4.9465 O   0  0  0  0  0  0  0  0  0  0  0  0
   -5.5450   37.4448   -7.5537 C   0  0  0  0  0  0  0  0  0  0  0  0
   -2.8767   39.6403   -5.9243 C   0  0  0  0  0  0  0  0  0  0  0  0
   -4.8579   38.6103   -2.8038 C   0  0  0  0  0  0  0  0  0  0  0  0
   -3.9408   38.1630   -1.6289 C   0  0  0  0  0  0  0  0  0  0  0  0
   -3.1185   35.8755    1.0146 C   0  0  0  0  0  0  0  0  0  0  0  0
   -4.1142   34.8978    1.0165 C   0  0  0  0  0  0  0  0  0  0  0  0
   -5.1752   34.9819    0.0939 C   0  0  0  0  0  0  0  0  0  0  0  0
   -5.0674   37.7635   -5.1770 C   0  0  0  0  0  0  0  0  0  0  0  0
   -3.3912   38.5015   -6.8298 C   0  0  2  0  0  0  0  0  0  0  0  0
   -3.9217   39.0713   -8.2967 C   0  0  0  0  0  0  0  0  0  0  0  0
   -5.0443   38.0806   -8.7021 C   0  0  0  0  0  0  0  0  0  0  0  0
   -2.7569   38.7565   -1.1778 C   0  0  0  0  0  0  0  0  0  0  0  0
   -2.0884   35.8082    1.8963 F   0  0  0  0  0  0  0  0  0  0  0  0
   -4.4731   37.9789   -6.3909 N   0  0  0  0  0  0  0  0  0  0  0  0
   -3.2831   39.4936   -4.4397 N   0  0  0  0  0  0  0  0  0  0  0  0
   -2.2957   38.0043   -0.1627 N   0  0  0  0  0  0  0  0  0  0  0  0
   -2.2299   40.5728   -6.3073 O   0  0  0  0  0  0  0  0  0  0  0  0
   -3.4256   37.4064   -3.9392 H   0  0  0  0  0  0  0  0  0  0  0  0
   -6.0500   36.1035   -1.5509 H   0  0  0  0  0  0  0  0  0  0  0  0
   -6.5733   37.7662   -7.3315 H   0  0  0  0  0  0  0  0  0  0  0  0
   -5.6106   36.3500   -7.6372 H   0  0  0  0  0  0  0  0  0  0  0  0
   -5.0405   39.6939   -2.7553 H   0  0  0  0  0  0  0  0  0  0  0  0
   -5.8381   38.1128   -2.7624 H   0  0  0  0  0  0  0  0  0  0  0  0
   -4.0706   34.0658    1.7347 H   0  0  0  0  0  0  0  0  0  0  0  0
   -5.9700   34.2215    0.1002 H   0  0  0  0  0  0  0  0  0  0  0  0
   -2.5366   37.8106   -6.8776 H   0  0  0  0  0  0  0  0  0  0  0  0
   -4.3185   40.0926   -8.1988 H   0  0  0  0  0  0  0  0  0  0  0  0
   -3.1170   39.1275   -9.0445 H   0  0  0  0  0  0  0  0  0  0  0  0
   -4.6362   37.3259   -9.3905 H   0  0  0  0  0  0  0  0  0  0  0  0
   -5.8563   38.6304   -9.2003 H   0  0  0  0  0  0  0  0  0  0  0  0
   -2.2903   39.6684   -1.5786 H   0  0  0  0  0  0  0  0  0  0  0  0
   -3.0122   40.1918   -3.7326 H   0  0  0  0  0  0  0  0  0  0  0  0
   -1.4332   38.1938    0.3675 H   0  0  0  0  0  0  0  0  0  0  0  0
  1  8  1  0
  1 13  1  0
  1 20  1  0
  2  4  1  0
  2 10  2  0
  2 21  1  0
  3  4  2  0
  3 12  1  0
  4  9  1  0
  5 13  2  0
  6 16  1  0
  6 19  1  0
  7 14  1  0
  7 20  1  0
  7 22  2  0
  8  9  1  0
  9 17  2  0
 10 11  1  0
 10 18  1  0
 11 12  2  0
 13 19  1  0
 14 15  1  0
 14 19  1  0
 15 16  1  0
 17 21  1  0
  1 23  1  1
  3 24  1  0
  6 25  1  0
  6 26  1  0
  8 27  1  0
  8 28  1  0
 11 29  1  0
 12 30  1  0
 14 31  1  6
 15 32  1  0
 15 33  1  0
 16 34  1  0
 16 35  1  0
 17 36  1  0
 20 37  1  0
 21 38  1  0
M  END
>  <filename_input>  (24) 
8HO0_3ZI_docked.sdf

>  <pdb_id>  (24) 
8HO0_3ZI

>  <pose_rank>  (24) 
23

>  <num_atoms_heavy>  (24) 
22

>  <num_torsions>  (24) 
2

>  <pose>  (24) 
[-4.1083663024844945, 38.2580449420281, -4.075196008610294, 0.39460938198692724, -3.2274556133702945, 0.012517365512461406, -0.630606306067655, -0.6392319494879607]

>  <energy>  (24) 
-177.85936368361254

>  <inter_energy>  (24) 
-174.4002452926181

>  <intra_energy>  (24) 
2.9703769438043617

>  <rmsd>  (24) 
13.2439

>  <sdf_rank>  (24) 
0

$$$$

     RDKit          3D

 38 41  0  0  0  0  0  0  0  0999 V2000
   -2.7742   38.7714   -2.8847 C   0  0  1  0  0  0  0  0  0  0  0  0
   -4.7452   38.0919   -6.9968 C   0  0  0  0  0  0  0  0  0  0  0  0
   -4.5322   40.5013   -6.7413 C   0  0  0  0  0  0  0  0  0  0  0  0
   -4.2475   39.1776   -6.3115 C   0  0  0  0  0  0  0  0  0  0  0  0
   -0.4105   39.1456   -2.6209 O   0  0  0  0  0  0  0  0  0  0  0  0
   -0.2743   38.9077    0.0406 C   0  0  0  0  0  0  0  0  0  0  0  0
   -4.0328   39.1042   -0.6149 C   0  0  0  0  0  0  0  0  0  0  0  0
   -2.7301   39.5280   -4.1992 C   0  0  0  0  0  0  0  0  0  0  0  0
   -3.4985   38.6466   -5.2259 C   0  0  0  0  0  0  0  0  0  0  0  0
   -5.5563   38.3055   -8.1493 C   0  0  0  0  0  0  0  0  0  0  0  0
   -5.8253   39.5993   -8.5975 C   0  0  0  0  0  0  0  0  0  0  0  0
   -5.3180   40.7033   -7.8848 C   0  0  0  0  0  0  0  0  0  0  0  0
   -1.4555   38.9261   -2.1001 C   0  0  0  0  0  0  0  0  0  0  0  0
   -2.7422   38.4809   -0.0429 C   0  0  2  0  0  0  0  0  0  0  0  0
   -2.2691   39.2246    1.3646 C   0  0  0  0  0  0  0  0  0  0  0  0
   -0.7234   39.0939    1.3587 C   0  0  0  0  0  0  0  0  0  0  0  0
   -3.5667   37.2507   -5.2915 C   0  0  0  0  0  0  0  0  0  0  0  0
   -6.0366   37.2308   -8.8256 F   0  0  0  0  0  0  0  0  0  0  0  0
   -1.7193   38.7183   -0.7733 N   0  0  0  0  0  0  0  0  0  0  0  0
   -4.0258   39.2602   -2.1532 N   0  0  0  0  0  0  0  0  0  0  0  0
   -4.3167   36.9384   -6.3634 N   0  0  0  0  0  0  0  0  0  0  0  0
   -4.9676   39.4565    0.0459 O   0  0  0  0  0  0  0  0  0  0  0  0
   -2.8523   37.6835   -3.0275 H   0  0  0  0  0  0  0  0  0  0  0  0
   -4.1388   41.3621   -6.1807 H   0  0  0  0  0  0  0  0  0  0  0  0
    0.2810   39.7847   -0.3233 H   0  0  0  0  0  0  0  0  0  0  0  0
    0.4256   38.0681   -0.0825 H   0  0  0  0  0  0  0  0  0  0  0  0
   -3.2202   40.5072   -4.0934 H   0  0  0  0  0  0  0  0  0  0  0  0
   -1.6955   39.7151   -4.5226 H   0  0  0  0  0  0  0  0  0  0  0  0
   -6.4304   39.7562   -9.5026 H   0  0  0  0  0  0  0  0  0  0  0  0
   -5.5386   41.7256   -8.2260 H   0  0  0  0  0  0  0  0  0  0  0  0
   -2.9972   37.4153    0.0539 H   0  0  0  0  0  0  0  0  0  0  0  0
   -2.5718   40.2821    1.3687 H   0  0  0  0  0  0  0  0  0  0  0  0
   -2.7281   38.7730    2.2564 H   0  0  0  0  0  0  0  0  0  0  0  0
   -0.4260   38.2311    1.9727 H   0  0  0  0  0  0  0  0  0  0  0  0
   -0.2764   40.0099    1.7724 H   0  0  0  0  0  0  0  0  0  0  0  0
   -3.0949   36.5409   -4.5961 H   0  0  0  0  0  0  0  0  0  0  0  0
   -4.8227   39.6720   -2.6593 H   0  0  0  0  0  0  0  0  0  0  0  0
   -4.5397   35.9802   -6.6684 H   0  0  0  0  0  0  0  0  0  0  0  0
  1  8  1  0
  1 13  1  0
  1 20  1  0
  2  4  1  0
  2 10  2  0
  2 21  1  0
  3  4  2  0
  3 12  1  0
  4  9  1  0
  5 13  2  0
  6 16  1  0
  6 19  1  0
  7 14  1  0
  7 20  1  0
  7 22  2  0
  8  9  1  0
  9 17  2  0
 10 11  1  0
 10 18  1  0
 11 12  2  0
 13 19  1  0
 14 15  1  0
 14 19  1  0
 15 16  1  0
 17 21  1  0
  1 23  1  6
  3 24  1  0
  6 25  1  0
  6 26  1  0
  8 27  1  0
  8 28  1  0
 11 29  1  0
 12 30  1  0
 14 31  1  1
 15 32  1  0
 15 33  1  0
 16 34  1  0
 16 35  1  0
 17 36  1  0
 20 37  1  0
 21 38  1  0
M  END
>  <filename_input>  (25) 
8HO0_3ZI_docked.sdf

>  <pdb_id>  (25) 
8HO0_3ZI

>  <pose_rank>  (25) 
24

>  <num_atoms_heavy>  (25) 
22

>  <num_torsions>  (25) 
2

>  <pose>  (25) 
[-2.7741588207025742, 38.771404201635754, -2.884674504139331, -1.5584071356662594, -2.1333538874528206, -5.221532076825552, -13.19521225123882, -8.782762877026084]

>  <energy>  (25) 
-150.553993963663

>  <inter_energy>  (25) 
-142.28933206265535

>  <intra_energy>  (25) 
0.0

>  <rmsd>  (25) 
11.8559

>  <sdf_rank>  (25) 
0

$$$$

     RDKit          3D

 38 41  0  0  0  0  0  0  0  0999 V2000
    4.8320   30.4540   -6.8080 C   0  0  1  0  0  0  0  0  0  0  0  0
    2.2610   30.5580  -10.2400 C   0  0  0  0  0  0  0  0  0  0  0  0
    3.4180   28.6030   -9.3710 C   0  0  0  0  0  0  0  0  0  0  0  0
    3.2960   30.0110   -9.5150 C   0  0  0  0  0  0  0  0  0  0  0  0
    7.1030   29.9750   -6.1680 O   0  0  0  0  0  0  0  0  0  0  0  0
    6.7890   30.0820   -3.5130 C   0  0  0  0  0  0  0  0  0  0  0  0
    3.5110   31.5390   -4.8270 C   0  0  0  0  0  0  0  0  0  0  0  0
    5.3330   30.9490   -8.1520 C   0  0  0  0  0  0  0  0  0  0  0  0
    4.0700   31.1080   -9.0470 C   0  0  0  0  0  0  0  0  0  0  0  0
    1.3050   29.6960  -10.8520 C   0  0  0  0  0  0  0  0  0  0  0  0
    1.3980   28.3120  -10.7000 C   0  0  0  0  0  0  0  0  0  0  0  0
    2.4650   27.7620   -9.9630 C   0  0  0  0  0  0  0  0  0  0  0  0
    5.9950   30.2270   -5.8210 C   0  0  0  0  0  0  0  0  0  0  0  0
    4.3790   30.5760   -3.9900 C   0  0  2  0  0  0  0  0  0  0  0  0
    4.9120   31.2870   -2.5870 C   0  0  0  0  0  0  0  0  0  0  0  0
    6.2770   30.6030   -2.3130 C   0  0  0  0  0  0  0  0  0  0  0  0
    3.4740   32.2880   -9.5050 C   0  0  0  0  0  0  0  0  0  0  0  0
    0.2820   30.2420  -11.5580 F   0  0  0  0  0  0  0  0  0  0  0  0
    5.5010   30.3190   -4.5480 N   0  0  0  0  0  0  0  0  0  0  0  0
    3.7780   31.4630   -6.3480 N   0  0  0  0  0  0  0  0  0  0  0  0
    2.3880   31.9360  -10.2160 N   0  0  0  0  0  0  0  0  0  0  0  0
    2.7040   32.2970   -4.3700 O   0  0  0  0  0  0  0  0  0  0  0  0
    4.3637   29.4608   -6.8731 H   0  0  0  0  0  0  0  0  0  0  0  0
    4.2545   28.1754   -8.7989 H   0  0  0  0  0  0  0  0  0  0  0  0
    7.6796   30.6358   -3.8449 H   0  0  0  0  0  0  0  0  0  0  0  0
    7.1247   29.0368   -3.4435 H   0  0  0  0  0  0  0  0  0  0  0  0
    5.8444   31.9161   -8.0369 H   0  0  0  0  0  0  0  0  0  0  0  0
    6.0563   30.2490   -8.5956 H   0  0  0  0  0  0  0  0  0  0  0  0
    0.6420   27.6540  -11.1533 H   0  0  0  0  0  0  0  0  0  0  0  0
    2.5507   26.6710   -9.8517 H   0  0  0  0  0  0  0  0  0  0  0  0
    3.7261   29.7015   -3.8525 H   0  0  0  0  0  0  0  0  0  0  0  0
    5.0384   32.3713   -2.7220 H   0  0  0  0  0  0  0  0  0  0  0  0
    4.2030   31.1642   -1.7550 H   0  0  0  0  0  0  0  0  0  0  0  0
    6.1393   29.7871   -1.5882 H   0  0  0  0  0  0  0  0  0  0  0  0
    6.9818   31.3418   -1.9038 H   0  0  0  0  0  0  0  0  0  0  0  0
    3.8277   33.3127   -9.3184 H   0  0  0  0  0  0  0  0  0  0  0  0
    3.2723   32.0609   -7.0171 H   0  0  0  0  0  0  0  0  0  0  0  0
    1.7445   32.5959  -10.6757 H   0  0  0  0  0  0  0  0  0  0  0  0
  1  8  1  0
  1 13  1  0
  1 20  1  0
  2  4  1  0
  2 10  2  0
  2 21  1  0
  3  4  2  0
  3 12  1  0
  4  9  1  0
  5 13  2  0
  6 16  1  0
  6 19  1  0
  7 14  1  0
  7 20  1  0
  7 22  2  0
  8  9  1  0
  9 17  2  0
 10 11  1  0
 10 18  1  0
 11 12  2  0
 13 19  1  0
 14 15  1  0
 14 19  1  0
 15 16  1  0
 17 21  1  0
  1 23  1  6
  3 24  1  0
  6 25  1  0
  6 26  1  0
  8 27  1  0
  8 28  1  0
 11 29  1  0
 12 30  1  0
 14 31  1  1
 15 32  1  0
 15 33  1  0
 16 34  1  0
 16 35  1  0
 17 36  1  0
 20 37  1  0
 21 38  1  0
M  END
>  <filename_input>  (26) 
8HO0_3ZI_docked.sdf

>  <pdb_id>  (26) 
8HO0_3ZI

>  <pose_rank>  (26) 
25

>  <num_atoms_heavy>  (26) 
22

>  <num_torsions>  (26) 
2

>  <pose>  (26) 
[4.832, 30.454, -6.808, 1e-06, 1e-06, 1e-06, 0.0, 0.0]

>  <energy>  (26) 
-780.6248427819858

>  <inter_energy>  (26) 
-786.2944727129563

>  <intra_energy>  (26) 
9.767563185058739

>  <rmsd>  (26) 
0.0

>  <sdf_rank>  (26) 
0

$$$$
