
     RDKit          3D

 45 47  0  0  0  0  0  0  0  0999 V2000
  -38.5222   40.6278   29.7729 C   0  0  0  0  0  0  0  0  0  0  0  0
  -36.7190   39.4145   28.6925 N   0  0  0  0  0  0  0  0  0  0  0  0
  -39.4652   40.1598   30.3874 O   0  0  0  0  0  0  0  0  0  0  0  0
  -40.0349   42.4128   28.6217 S   0  0  1  0  0  0  0  0  0  0  0  0
  -41.9279   45.0989   20.0823 N   0  0  0  0  0  0  0  0  0  0  0  0
  -41.0801   46.0405   20.5030 C   0  0  0  0  0  0  0  0  0  0  0  0
  -40.4977   46.1734   21.6874 N   0  0  0  0  0  0  0  0  0  0  0  0
  -40.8710   45.1827   22.5077 C   0  0  0  0  0  0  0  0  0  0  0  0
  -41.7317   44.1484   22.2238 C   0  0  0  0  0  0  0  0  0  0  0  0
  -42.2887   44.1144   20.9354 C   0  0  0  0  0  0  0  0  0  0  0  0
  -43.1348   43.1810   20.5161 N   0  0  0  0  0  0  0  0  0  0  0  0
  -41.8676   43.3233   23.3307 N   0  0  0  0  0  0  0  0  0  0  0  0
  -41.0998   43.8676   24.2452 C   0  0  0  0  0  0  0  0  0  0  0  0
  -40.4680   44.9976   23.7990 N   0  0  0  0  0  0  0  0  0  0  0  0
  -37.1368   40.0697   29.9340 C   0  0  0  0  0  0  0  0  0  0  0  0
  -39.5542   45.8647   24.5206 C   0  0  1  0  0  0  0  0  0  0  0  0
  -40.9898   41.4315   28.2844 O   0  0  0  0  0  0  0  0  0  0  0  0
  -40.2689   46.8586   25.4311 C   0  0  2  0  0  0  0  0  0  0  0  0
  -39.6222   48.1085   25.3993 O   0  0  0  0  0  0  0  0  0  0  0  0
  -40.2604   43.2774   29.7114 O   0  0  0  0  0  0  0  0  0  0  0  0
  -40.1696   46.1835   26.7993 C   0  0  2  0  0  0  0  0  0  0  0  0
  -40.2043   47.1298   27.8563 O   0  0  0  0  0  0  0  0  0  0  0  0
  -38.6430   41.6363   28.9206 N   0  0  0  0  0  0  0  0  0  0  0  0
  -38.8032   45.4998   26.7039 C   0  0  2  0  0  0  0  0  0  0  0  0
  -38.7271   45.0612   25.3280 O   0  0  0  0  0  0  0  0  0  0  0  0
  -38.5988   44.3153   27.6152 C   0  0  0  0  0  0  0  0  0  0  0  0
  -39.6872   43.3617   27.4251 O   0  0  0  0  0  0  0  0  0  0  0  0
  -36.1784   38.5669   28.9167 H   0  0  0  0  0  0  0  0  0  0  0  0
  -37.5514   39.1558   28.1439 H   0  0  0  0  0  0  0  0  0  0  0  0
  -36.1333   40.0602   28.1439 H   0  0  0  0  0  0  0  0  0  0  0  0
  -40.8291   46.8151   19.7634 H   0  0  0  0  0  0  0  0  0  0  0  0
  -43.4215   42.4228   21.1515 H   0  0  0  0  0  0  0  0  0  0  0  0
  -43.5045   43.2151   19.5553 H   0  0  0  0  0  0  0  0  0  0  0  0
  -40.9771   43.4604   25.2596 H   0  0  0  0  0  0  0  0  0  0  0  0
  -36.4388   40.8869   30.1686 H   0  0  0  0  0  0  0  0  0  0  0  0
  -37.1341   39.3341   30.7519 H   0  0  0  0  0  0  0  0  0  0  0  0
  -38.9873   46.4386   23.7727 H   0  0  0  0  0  0  0  0  0  0  0  0
  -41.3084   47.0734   25.1427 H   0  0  0  0  0  0  0  0  0  0  0  0
  -39.4609   48.4203   26.3250 H   0  0  0  0  0  0  0  0  0  0  0  0
  -41.0014   45.4981   27.0193 H   0  0  0  0  0  0  0  0  0  0  0  0
  -40.1869   46.6551   28.7249 H   0  0  0  0  0  0  0  0  0  0  0  0
  -37.7997   41.9460   28.4168 H   0  0  0  0  0  0  0  0  0  0  0  0
  -38.0242   46.2096   27.0190 H   0  0  0  0  0  0  0  0  0  0  0  0
  -37.6406   43.8304   27.3770 H   0  0  0  0  0  0  0  0  0  0  0  0
  -38.5877   44.6552   28.6613 H   0  0  0  0  0  0  0  0  0  0  0  0
  1  3  2  0
  1 15  1  0
  1 23  1  0
  2 15  1  0
  4 17  2  0
  4 20  2  0
  4 23  1  0
  4 27  1  6
  5  6  2  0
  5 10  1  0
  6  7  1  0
  7  8  2  0
  8  9  1  0
  8 14  1  0
  9 10  2  0
  9 12  1  0
 10 11  1  0
 12 13  2  0
 13 14  1  0
 16 14  1  0
 16 18  1  0
 16 25  1  0
 18 19  1  0
 18 21  1  0
 21 22  1  0
 21 24  1  0
 24 25  1  0
 24 26  1  0
 26 27  1  0
  2 28  1  0
  2 29  1  0
  2 30  1  0
  6 31  1  0
 11 32  1  0
 11 33  1  0
 13 34  1  0
 15 35  1  0
 15 36  1  0
 16 37  1  6
 18 38  1  6
 19 39  1  0
 21 40  1  1
 22 41  1  0
 23 42  1  0
 24 43  1  1
 26 44  1  0
 26 45  1  0
M  CHG  1   2   1
M  END
>  <filename_input>  (1) 
8SLG_G5A_docked.sdf

>  <pdb_id>  (1) 
8SLG_G5A

>  <pose_rank>  (1) 
0

>  <num_atoms_heavy>  (1) 
27

>  <num_torsions>  (1) 
6

>  <pose>  (1) 
[-39.5541709130395, 45.864719347873006, 24.520559154673016, 4.202974097093452, -0.9586467273537533, -4.459505908395554, 0.04133706332069584, -6.391476992410886, -0.41388284105973655, -0.04050790189382361, -1.8822300986109746, 1.7158353975963831]

>  <energy>  (1) 
-989.8799322799701

>  <inter_energy>  (1) 
-1000.8791086258649

>  <intra_energy>  (1) 
10.011902491097024

>  <rmsd>  (1) 
0.721001

>  <sdf_rank>  (1) 
0

$$$$

     RDKit          3D

 45 47  0  0  0  0  0  0  0  0999 V2000
  -41.9554   40.8435   29.4241 C   0  0  0  0  0  0  0  0  0  0  0  0
  -44.2223   40.2117   30.0183 N   0  0  0  0  0  0  0  0  0  0  0  0
  -42.1553   41.9107   29.9781 O   0  0  0  0  0  0  0  0  0  0  0  0
  -39.4010   41.3231   29.2122 S   0  0  1  0  0  0  0  0  0  0  0  0
  -41.5314   45.7001   20.2113 N   0  0  0  0  0  0  0  0  0  0  0  0
  -40.6938   46.4797   20.8990 C   0  0  0  0  0  0  0  0  0  0  0  0
  -40.1914   46.3013   22.1137 N   0  0  0  0  0  0  0  0  0  0  0  0
  -40.6423   45.1574   22.6447 C   0  0  0  0  0  0  0  0  0  0  0  0
  -41.5042   44.2555   22.0662 C   0  0  0  0  0  0  0  0  0  0  0  0
  -41.9720   44.5538   20.7763 C   0  0  0  0  0  0  0  0  0  0  0  0
  -42.8079   43.7818   20.0920 N   0  0  0  0  0  0  0  0  0  0  0  0
  -41.7344   43.1941   22.9293 N   0  0  0  0  0  0  0  0  0  0  0  0
  -41.0193   43.4726   23.9938 C   0  0  0  0  0  0  0  0  0  0  0  0
  -40.3332   44.6517   23.8748 N   0  0  0  0  0  0  0  0  0  0  0  0
  -43.0794   39.8813   29.1639 C   0  0  0  0  0  0  0  0  0  0  0  0
  -39.4521   45.2842   24.8398 C   0  0  1  0  0  0  0  0  0  0  0  0
  -39.3322   41.6574   30.5804 O   0  0  0  0  0  0  0  0  0  0  0  0
  -40.2051   45.9578   25.9830 C   0  0  2  0  0  0  0  0  0  0  0  0
  -39.5852   47.1722   26.3328 O   0  0  0  0  0  0  0  0  0  0  0  0
  -38.3581   40.5941   28.6064 O   0  0  0  0  0  0  0  0  0  0  0  0
  -40.1169   44.9141   27.0968 C   0  0  2  0  0  0  0  0  0  0  0  0
  -40.1919   45.5098   28.3827 O   0  0  0  0  0  0  0  0  0  0  0  0
  -40.7580   40.4601   29.0030 N   0  0  0  0  0  0  0  0  0  0  0  0
  -38.7344   44.3090   26.8393 C   0  0  2  0  0  0  0  0  0  0  0  0
  -38.6231   44.2926   25.3975 O   0  0  0  0  0  0  0  0  0  0  0  0
  -38.5215   42.9133   27.3702 C   0  0  0  0  0  0  0  0  0  0  0  0
  -39.6030   42.5720   28.2889 O   0  0  0  0  0  0  0  0  0  0  0  0
  -43.9460   40.1319   31.0073 H   0  0  0  0  0  0  0  0  0  0  0  0
  -44.5287   41.1758   29.8241 H   0  0  0  0  0  0  0  0  0  0  0  0
  -44.9958   39.5599   29.8241 H   0  0  0  0  0  0  0  0  0  0  0  0
  -40.3753   47.3993   20.3862 H   0  0  0  0  0  0  0  0  0  0  0  0
  -43.1544   42.9045   20.5057 H   0  0  0  0  0  0  0  0  0  0  0  0
  -43.1097   44.0602   19.1474 H   0  0  0  0  0  0  0  0  0  0  0  0
  -40.9758   42.8289   24.8848 H   0  0  0  0  0  0  0  0  0  0  0  0
  -43.3809   39.9487   28.1082 H   0  0  0  0  0  0  0  0  0  0  0  0
  -42.7416   38.8587   29.3881 H   0  0  0  0  0  0  0  0  0  0  0  0
  -38.8839   46.0600   24.3057 H   0  0  0  0  0  0  0  0  0  0  0  0
  -41.2435   46.2315   25.7446 H   0  0  0  0  0  0  0  0  0  0  0  0
  -39.5453   47.2503   27.3189 H   0  0  0  0  0  0  0  0  0  0  0  0
  -40.9376   44.1818   27.0871 H   0  0  0  0  0  0  0  0  0  0  0  0
  -40.1037   44.8092   29.0766 H   0  0  0  0  0  0  0  0  0  0  0  0
  -40.6851   39.5575   28.5122 H   0  0  0  0  0  0  0  0  0  0  0  0
  -37.9770   44.9077   27.3664 H   0  0  0  0  0  0  0  0  0  0  0  0
  -38.5127   42.1999   26.5330 H   0  0  0  0  0  0  0  0  0  0  0  0
  -37.5599   42.8662   27.9022 H   0  0  0  0  0  0  0  0  0  0  0  0
  1  3  2  0
  1 15  1  0
  1 23  1  0
  2 15  1  0
  4 17  2  0
  4 20  2  0
  4 23  1  0
  4 27  1  6
  5  6  2  0
  5 10  1  0
  6  7  1  0
  7  8  2  0
  8  9  1  0
  8 14  1  0
  9 10  2  0
  9 12  1  0
 10 11  1  0
 12 13  2  0
 13 14  1  0
 16 14  1  0
 16 18  1  0
 16 25  1  0
 18 19  1  0
 18 21  1  0
 21 22  1  0
 21 24  1  0
 24 25  1  0
 24 26  1  0
 26 27  1  0
  2 28  1  0
  2 29  1  0
  2 30  1  0
  6 31  1  0
 11 32  1  0
 11 33  1  0
 13 34  1  0
 15 35  1  0
 15 36  1  0
 16 37  1  6
 18 38  1  6
 19 39  1  0
 21 40  1  6
 22 41  1  0
 23 42  1  0
 24 43  1  1
 26 44  1  0
 26 45  1  0
M  CHG  1   2   1
M  END
>  <filename_input>  (2) 
8SLG_G5A_docked.sdf

>  <pdb_id>  (2) 
8SLG_G5A

>  <pose_rank>  (2) 
1

>  <num_atoms_heavy>  (2) 
27

>  <num_torsions>  (2) 
6

>  <pose>  (2) 
[-39.45210157807451, 45.28417926973246, 24.839758485816834, 0.24072197124474504, -0.0184889576902352, 0.07744461520285213, 12.691602746164738, -1.2631945569814982, 11.956370469736866, 4.979391219894277, -6.349219548658976, -0.5557792657708684]

>  <energy>  (2) 
-930.8885336631122

>  <inter_energy>  (2) 
-941.2277220990413

>  <intra_energy>  (2) 
16.73775405127285

>  <rmsd>  (2) 
2.33308

>  <sdf_rank>  (2) 
0

$$$$

     RDKit          3D

 45 47  0  0  0  0  0  0  0  0999 V2000
  -39.8955   42.2164   31.1700 C   0  0  0  0  0  0  0  0  0  0  0  0
  -40.2511   42.3122   33.5690 N   0  0  0  0  0  0  0  0  0  0  0  0
  -39.1441   43.1682   31.2943 O   0  0  0  0  0  0  0  0  0  0  0  0
  -39.1763   41.8505   28.6903 S   0  0  1  0  0  0  0  0  0  0  0  0
  -41.6761   45.7282   20.2435 N   0  0  0  0  0  0  0  0  0  0  0  0
  -40.7947   46.4976   20.8866 C   0  0  0  0  0  0  0  0  0  0  0  0
  -40.2903   46.3535   22.1050 N   0  0  0  0  0  0  0  0  0  0  0  0
  -40.7918   45.2603   22.6942 C   0  0  0  0  0  0  0  0  0  0  0  0
  -41.7025   44.3753   22.1663 C   0  0  0  0  0  0  0  0  0  0  0  0
  -42.1671   44.6337   20.8667 C   0  0  0  0  0  0  0  0  0  0  0  0
  -43.0463   43.8719   20.2267 N   0  0  0  0  0  0  0  0  0  0  0  0
  -41.9763   43.3696   23.0817 N   0  0  0  0  0  0  0  0  0  0  0  0
  -41.2385   43.6634   24.1264 C   0  0  0  0  0  0  0  0  0  0  0  0
  -40.4965   44.8000   23.9452 N   0  0  0  0  0  0  0  0  0  0  0  0
  -40.7501   41.7475   32.3131 C   0  0  0  0  0  0  0  0  0  0  0  0
  -39.5763   45.4339   24.8720 C   0  0  1  0  0  0  0  0  0  0  0  0
  -37.9423   41.1805   28.8196 O   0  0  0  0  0  0  0  0  0  0  0  0
  -40.1142   46.7412   25.4460 C   0  0  2  0  0  0  0  0  0  0  0  0
  -39.0827   47.6931   25.5531 O   0  0  0  0  0  0  0  0  0  0  0  0
  -40.0248   41.5711   27.6004 O   0  0  0  0  0  0  0  0  0  0  0  0
  -40.6527   46.3065   26.8093 C   0  0  2  0  0  0  0  0  0  0  0  0
  -40.6434   47.3750   27.7433 O   0  0  0  0  0  0  0  0  0  0  0  0
  -40.0265   41.5414   30.0363 N   0  0  0  0  0  0  0  0  0  0  0  0
  -39.6535   45.2137   27.1979 C   0  0  2  0  0  0  0  0  0  0  0  0
  -39.3547   44.5524   25.9471 O   0  0  0  0  0  0  0  0  0  0  0  0
  -40.1517   44.1948   28.1922 C   0  0  0  0  0  0  0  0  0  0  0  0
  -39.0264   43.4095   28.6895 O   0  0  0  0  0  0  0  0  0  0  0  0
  -40.6855   41.8206   34.3630 H   0  0  0  0  0  0  0  0  0  0  0  0
  -39.2282   42.1997   33.6136 H   0  0  0  0  0  0  0  0  0  0  0  0
  -40.4886   43.3135   33.6136 H   0  0  0  0  0  0  0  0  0  0  0  0
  -40.4364   47.3745   20.3274 H   0  0  0  0  0  0  0  0  0  0  0  0
  -43.4316   43.0339   20.6851 H   0  0  0  0  0  0  0  0  0  0  0  0
  -43.3430   44.1190   19.2718 H   0  0  0  0  0  0  0  0  0  0  0  0
  -41.2182   43.0621   25.0473 H   0  0  0  0  0  0  0  0  0  0  0  0
  -41.7876   42.0754   32.1519 H   0  0  0  0  0  0  0  0  0  0  0  0
  -40.7129   40.6496   32.3681 H   0  0  0  0  0  0  0  0  0  0  0  0
  -38.6557   45.6626   24.3152 H   0  0  0  0  0  0  0  0  0  0  0  0
  -40.8817   47.2280   24.8264 H   0  0  0  0  0  0  0  0  0  0  0  0
  -38.8931   47.8680   26.5089 H   0  0  0  0  0  0  0  0  0  0  0  0
  -41.7003   45.9716   26.7882 H   0  0  0  0  0  0  0  0  0  0  0  0
  -40.6466   47.0092   28.6632 H   0  0  0  0  0  0  0  0  0  0  0  0
  -40.7112   40.7725   30.0088 H   0  0  0  0  0  0  0  0  0  0  0  0
  -38.7950   45.6770   27.7062 H   0  0  0  0  0  0  0  0  0  0  0  0
  -40.6388   44.7105   29.0329 H   0  0  0  0  0  0  0  0  0  0  0  0
  -40.8761   43.5277   27.7019 H   0  0  0  0  0  0  0  0  0  0  0  0
  1  3  2  0
  1 15  1  0
  1 23  1  0
  2 15  1  0
  4 17  2  0
  4 20  2  0
  4 23  1  0
  4 27  1  1
  5  6  2  0
  5 10  1  0
  6  7  1  0
  7  8  2  0
  8  9  1  0
  8 14  1  0
  9 10  2  0
  9 12  1  0
 10 11  1  0
 12 13  2  0
 13 14  1  0
 16 14  1  0
 16 18  1  0
 16 25  1  0
 18 19  1  0
 18 21  1  0
 21 22  1  0
 21 24  1  0
 24 25  1  0
 24 26  1  0
 26 27  1  0
  2 28  1  0
  2 29  1  0
  2 30  1  0
  6 31  1  0
 11 32  1  0
 11 33  1  0
 13 34  1  0
 15 35  1  0
 15 36  1  0
 16 37  1  6
 18 38  1  6
 19 39  1  0
 21 40  1  6
 22 41  1  0
 23 42  1  0
 24 43  1  1
 26 44  1  0
 26 45  1  0
M  CHG  1   2   1
M  END
>  <filename_input>  (3) 
8SLG_G5A_docked.sdf

>  <pdb_id>  (3) 
8SLG_G5A

>  <pose_rank>  (3) 
2

>  <num_atoms_heavy>  (3) 
27

>  <num_torsions>  (3) 
6

>  <pose>  (3) 
[-39.57630639691502, 45.43385428260065, 24.87203215448094, 2.2521717706894755, 3.691733603598587, 3.9069343459119614, -0.4410552069665689, -3.957178440193574, -0.010754911439840902, -0.4558299530633463, 0.5017845741015754, -0.5227816407183525]

>  <energy>  (3) 
-940.6659139106076

>  <inter_energy>  (3) 
-960.280911306283

>  <intra_energy>  (3) 
24.002353423253176

>  <rmsd>  (3) 
2.05808

>  <sdf_rank>  (3) 
0

$$$$

     RDKit          3D

 45 47  0  0  0  0  0  0  0  0999 V2000
  -39.8202   41.8089   31.1491 C   0  0  0  0  0  0  0  0  0  0  0  0
  -41.7050   42.3992   32.5597 N   0  0  0  0  0  0  0  0  0  0  0  0
  -39.3167   40.7120   31.3199 O   0  0  0  0  0  0  0  0  0  0  0  0
  -39.5934   41.6153   28.5585 S   0  0  1  0  0  0  0  0  0  0  0  0
  -42.4089   42.3448   22.1173 N   0  0  0  0  0  0  0  0  0  0  0  0
  -41.8024   42.3875   23.3059 C   0  0  0  0  0  0  0  0  0  0  0  0
  -41.0498   43.3475   23.8272 N   0  0  0  0  0  0  0  0  0  0  0  0
  -40.9391   44.3731   22.9730 C   0  0  0  0  0  0  0  0  0  0  0  0
  -41.4988   44.4762   21.7212 C   0  0  0  0  0  0  0  0  0  0  0  0
  -42.2747   43.3940   21.2757 C   0  0  0  0  0  0  0  0  0  0  0  0
  -42.8758   43.3478   20.0927 N   0  0  0  0  0  0  0  0  0  0  0  0
  -41.1557   45.6899   21.1435 N   0  0  0  0  0  0  0  0  0  0  0  0
  -40.4077   46.2845   22.0429 C   0  0  0  0  0  0  0  0  0  0  0  0
  -40.2453   45.5315   23.1752 N   0  0  0  0  0  0  0  0  0  0  0  0
  -40.2818   42.6408   32.3116 C   0  0  0  0  0  0  0  0  0  0  0  0
  -39.4872   45.8525   24.3709 C   0  0  1  0  0  0  0  0  0  0  0  0
  -38.5015   40.7665   28.8338 O   0  0  0  0  0  0  0  0  0  0  0  0
  -40.1904   46.8660   25.2688 C   0  0  2  0  0  0  0  0  0  0  0  0
  -39.2588   47.7673   25.8177 O   0  0  0  0  0  0  0  0  0  0  0  0
  -40.7872   41.0865   28.0283 O   0  0  0  0  0  0  0  0  0  0  0  0
  -40.8369   45.9747   26.3296 C   0  0  2  0  0  0  0  0  0  0  0  0
  -41.0177   46.6645   27.5566 O   0  0  0  0  0  0  0  0  0  0  0  0
  -39.9847   42.3504   29.9500 N   0  0  0  0  0  0  0  0  0  0  0  0
  -39.7993   44.8569   26.4627 C   0  0  2  0  0  0  0  0  0  0  0  0
  -39.3122   44.6697   25.1140 O   0  0  0  0  0  0  0  0  0  0  0  0
  -40.3173   43.5425   26.9910 C   0  0  0  0  0  0  0  0  0  0  0  0
  -39.2206   42.7969   27.6004 O   0  0  0  0  0  0  0  0  0  0  0  0
  -41.8764   42.3701   33.5749 H   0  0  0  0  0  0  0  0  0  0  0  0
  -42.2603   43.1580   32.1393 H   0  0  0  0  0  0  0  0  0  0  0  0
  -41.9789   41.4997   32.1393 H   0  0  0  0  0  0  0  0  0  0  0  0
  -41.9470   41.5021   23.9424 H   0  0  0  0  0  0  0  0  0  0  0  0
  -42.7852   44.1376   19.4378 H   0  0  0  0  0  0  0  0  0  0  0  0
  -43.4327   42.5222   19.8299 H   0  0  0  0  0  0  0  0  0  0  0  0
  -39.9598   47.2793   21.9026 H   0  0  0  0  0  0  0  0  0  0  0  0
  -39.7037   42.3695   33.2073 H   0  0  0  0  0  0  0  0  0  0  0  0
  -40.1287   43.7052   32.0804 H   0  0  0  0  0  0  0  0  0  0  0  0
  -38.5333   46.2934   24.0459 H   0  0  0  0  0  0  0  0  0  0  0  0
  -40.9233   47.5014   24.7501 H   0  0  0  0  0  0  0  0  0  0  0  0
  -39.3020   47.7255   26.8058 H   0  0  0  0  0  0  0  0  0  0  0  0
  -41.8447   45.6239   26.0628 H   0  0  0  0  0  0  0  0  0  0  0  0
  -40.8551   46.0442   28.3109 H   0  0  0  0  0  0  0  0  0  0  0  0
  -40.3862   43.2976   29.8992 H   0  0  0  0  0  0  0  0  0  0  0  0
  -39.0426   45.1563   27.2028 H   0  0  0  0  0  0  0  0  0  0  0  0
  -41.0956   43.7316   27.7450 H   0  0  0  0  0  0  0  0  0  0  0  0
  -40.7434   42.9569   26.1631 H   0  0  0  0  0  0  0  0  0  0  0  0
  1  3  2  0
  1 15  1  0
  1 23  1  0
  2 15  1  0
  4 17  2  0
  4 20  2  0
  4 23  1  0
  4 27  1  6
  5  6  2  0
  5 10  1  0
  6  7  1  0
  7  8  2  0
  8  9  1  0
  8 14  1  0
  9 10  2  0
  9 12  1  0
 10 11  1  0
 12 13  2  0
 13 14  1  0
 16 14  1  0
 16 18  1  0
 16 25  1  0
 18 19  1  0
 18 21  1  0
 21 22  1  0
 21 24  1  0
 24 25  1  0
 24 26  1  0
 26 27  1  0
  2 28  1  0
  2 29  1  0
  2 30  1  0
  6 31  1  0
 11 32  1  0
 11 33  1  0
 13 34  1  0
 15 35  1  0
 15 36  1  0
 16 37  1  6
 18 38  1  6
 19 39  1  0
 21 40  1  6
 22 41  1  0
 23 42  1  0
 24 43  1  1
 26 44  1  0
 26 45  1  0
M  CHG  1   2   1
M  END
>  <filename_input>  (4) 
8SLG_G5A_docked.sdf

>  <pdb_id>  (4) 
8SLG_G5A

>  <pose_rank>  (4) 
3

>  <num_atoms_heavy>  (4) 
27

>  <num_torsions>  (4) 
6

>  <pose>  (4) 
[-39.48717793321085, 45.85247665935646, 24.37092142682707, -2.170997882362882, 4.1130162170926985, 3.4329085647946185, -3.5085455760371227, -3.7514166476032185, -1.1605970606309157, -6.696860881924552, -1.4911475439672237, -1.876754523097823]

>  <energy>  (4) 
-789.3737509786979

>  <inter_energy>  (4) 
-843.2680363343271

>  <intra_energy>  (4) 
58.13503753103969

>  <rmsd>  (4) 
2.54942

>  <sdf_rank>  (4) 
0

$$$$

     RDKit          3D

 45 47  0  0  0  0  0  0  0  0999 V2000
  -41.8232   42.7894   30.0752 C   0  0  0  0  0  0  0  0  0  0  0  0
  -41.3086   43.9920   32.1196 N   0  0  0  0  0  0  0  0  0  0  0  0
  -42.5188   41.8006   29.9193 O   0  0  0  0  0  0  0  0  0  0  0  0
  -40.0269   41.9065   28.4037 S   0  0  1  0  0  0  0  0  0  0  0  0
  -42.0210   44.7768   20.1184 N   0  0  0  0  0  0  0  0  0  0  0  0
  -41.1195   45.6770   20.5177 C   0  0  0  0  0  0  0  0  0  0  0  0
  -40.5120   45.7890   21.6916 N   0  0  0  0  0  0  0  0  0  0  0  0
  -40.9219   44.8249   22.5260 C   0  0  0  0  0  0  0  0  0  0  0  0
  -41.8388   43.8339   22.2645 C   0  0  0  0  0  0  0  0  0  0  0  0
  -42.4177   43.8185   20.9854 C   0  0  0  0  0  0  0  0  0  0  0  0
  -43.3170   42.9265   20.5874 N   0  0  0  0  0  0  0  0  0  0  0  0
  -41.9986   43.0252   23.3803 N   0  0  0  0  0  0  0  0  0  0  0  0
  -41.1893   43.5365   24.2779 C   0  0  0  0  0  0  0  0  0  0  0  0
  -40.5080   44.6293   23.8123 N   0  0  0  0  0  0  0  0  0  0  0  0
  -42.2449   43.8978   30.9973 C   0  0  0  0  0  0  0  0  0  0  0  0
  -39.5395   45.4540   24.5119 C   0  0  1  0  0  0  0  0  0  0  0  0
  -38.9776   41.2329   29.0621 O   0  0  0  0  0  0  0  0  0  0  0  0
  -40.1861   46.4522   25.4676 C   0  0  2  0  0  0  0  0  0  0  0  0
  -39.5019   47.6819   25.4320 O   0  0  0  0  0  0  0  0  0  0  0  0
  -41.1061   41.1806   27.8610 O   0  0  0  0  0  0  0  0  0  0  0  0
  -40.0545   45.7487   26.8187 C   0  0  2  0  0  0  0  0  0  0  0  0
  -40.0177   46.6756   27.8927 O   0  0  0  0  0  0  0  0  0  0  0  0
  -40.6568   42.9564   29.4671 N   0  0  0  0  0  0  0  0  0  0  0  0
  -38.7152   45.0250   26.6568 C   0  0  2  0  0  0  0  0  0  0  0  0
  -38.7072   44.6102   25.2715 O   0  0  0  0  0  0  0  0  0  0  0  0
  -38.5127   43.8179   27.5383 C   0  0  0  0  0  0  0  0  0  0  0  0
  -39.5266   42.8144   27.2296 O   0  0  0  0  0  0  0  0  0  0  0  0
  -41.8295   43.9396   33.0066 H   0  0  0  0  0  0  0  0  0  0  0  0
  -40.6347   43.2146   32.0707 H   0  0  0  0  0  0  0  0  0  0  0  0
  -40.8031   44.8881   32.0707 H   0  0  0  0  0  0  0  0  0  0  0  0
  -40.8415   46.4321   19.7677 H   0  0  0  0  0  0  0  0  0  0  0  0
  -43.6317   42.1888   21.2337 H   0  0  0  0  0  0  0  0  0  0  0  0
  -43.7000   42.9722   19.6324 H   0  0  0  0  0  0  0  0  0  0  0  0
  -41.0710   43.1313   25.2937 H   0  0  0  0  0  0  0  0  0  0  0  0
  -42.2509   44.8495   30.4457 H   0  0  0  0  0  0  0  0  0  0  0  0
  -43.2535   43.6865   31.3821 H   0  0  0  0  0  0  0  0  0  0  0  0
  -38.9847   46.0240   23.7522 H   0  0  0  0  0  0  0  0  0  0  0  0
  -41.2289   46.7044   25.2247 H   0  0  0  0  0  0  0  0  0  0  0  0
  -39.3300   47.9908   26.3568 H   0  0  0  0  0  0  0  0  0  0  0  0
  -40.8983   45.0853   27.0595 H   0  0  0  0  0  0  0  0  0  0  0  0
  -40.0371   46.1853   28.7525 H   0  0  0  0  0  0  0  0  0  0  0  0
  -40.1169   43.8063   29.6838 H   0  0  0  0  0  0  0  0  0  0  0  0
  -37.9023   45.7044   26.9530 H   0  0  0  0  0  0  0  0  0  0  0  0
  -37.5128   43.3961   27.3584 H   0  0  0  0  0  0  0  0  0  0  0  0
  -38.6008   44.1156   28.5935 H   0  0  0  0  0  0  0  0  0  0  0  0
  1  3  2  0
  1 15  1  0
  1 23  1  0
  2 15  1  0
  4 17  2  0
  4 20  2  0
  4 23  1  0
  4 27  1  6
  5  6  2  0
  5 10  1  0
  6  7  1  0
  7  8  2  0
  8  9  1  0
  8 14  1  0
  9 10  2  0
  9 12  1  0
 10 11  1  0
 12 13  2  0
 13 14  1  0
 16 14  1  0
 16 18  1  0
 16 25  1  0
 18 19  1  0
 18 21  1  0
 21 22  1  0
 21 24  1  0
 24 25  1  0
 24 26  1  0
 26 27  1  0
  2 28  1  0
  2 29  1  0
  2 30  1  0
  6 31  1  0
 11 32  1  0
 11 33  1  0
 13 34  1  0
 15 35  1  0
 15 36  1  0
 16 37  1  6
 18 38  1  6
 19 39  1  0
 21 40  1  1
 22 41  1  0
 23 42  1  0
 24 43  1  6
 26 44  1  0
 26 45  1  0
M  CHG  1   2   1
M  END
>  <filename_input>  (5) 
8SLG_G5A_docked.sdf

>  <pdb_id>  (5) 
8SLG_G5A

>  <pose_rank>  (5) 
4

>  <num_atoms_heavy>  (5) 
27

>  <num_torsions>  (5) 
6

>  <pose>  (5) 
[-39.53952653275361, 45.45400671934053, 24.511916618016553, 3.1633132009432368, -4.721108253337184, -2.514191967017585, 0.08177811242451778, -6.244070656566699, -0.29557193992779013, -4.2651257622426755, -2.806896521357052, 1.7681904034525997]

>  <energy>  (5) 
-899.8689620087029

>  <inter_energy>  (5) 
-916.8675975610201

>  <intra_energy>  (5) 
23.01281293799379

>  <rmsd>  (5) 
2.24728

>  <sdf_rank>  (5) 
0

$$$$

     RDKit          3D

 45 47  0  0  0  0  0  0  0  0999 V2000
  -41.9240   44.5692   21.2631 C   0  0  0  0  0  0  0  0  0  0  0  0
  -43.7628   43.8538   19.8497 N   0  0  0  0  0  0  0  0  0  0  0  0
  -41.7178   45.4345   20.4296 O   0  0  0  0  0  0  0  0  0  0  0  0
  -39.9373   45.3858   22.7417 S   0  0  1  0  0  0  0  0  0  0  0  0
  -38.2389   40.9976   30.7730 N   0  0  0  0  0  0  0  0  0  0  0  0
  -38.6987   42.2192   31.0537 C   0  0  0  0  0  0  0  0  0  0  0  0
  -39.2926   43.0941   30.2528 N   0  0  0  0  0  0  0  0  0  0  0  0
  -39.4022   42.5973   29.0139 C   0  0  0  0  0  0  0  0  0  0  0  0
  -38.9785   41.3660   28.5718 C   0  0  0  0  0  0  0  0  0  0  0  0
  -38.3606   40.5259   29.5121 C   0  0  0  0  0  0  0  0  0  0  0  0
  -37.8994   39.3122   29.2344 N   0  0  0  0  0  0  0  0  0  0  0  0
  -39.2696   41.2169   27.2237 N   0  0  0  0  0  0  0  0  0  0  0  0
  -39.8526   42.3427   26.8848 C   0  0  0  0  0  0  0  0  0  0  0  0
  -39.9622   43.2164   27.9335 N   0  0  0  0  0  0  0  0  0  0  0  0
  -43.0504   43.5884   21.1016 C   0  0  0  0  0  0  0  0  0  0  0  0
  -40.5387   44.5488   27.9412 C   0  0  1  0  0  0  0  0  0  0  0  0
  -38.8108   44.9183   22.0341 O   0  0  0  0  0  0  0  0  0  0  0  0
  -39.6949   45.5592   28.7124 C   0  0  2  0  0  0  0  0  0  0  0  0
  -40.5207   46.4376   29.4391 O   0  0  0  0  0  0  0  0  0  0  0  0
  -40.3842   46.7111   22.5688 O   0  0  0  0  0  0  0  0  0  0  0  0
  -38.9264   46.2677   27.5965 C   0  0  2  0  0  0  0  0  0  0  0  0
  -38.5610   47.5883   27.9663 O   0  0  0  0  0  0  0  0  0  0  0  0
  -41.1784   44.4186   22.3491 N   0  0  0  0  0  0  0  0  0  0  0  0
  -39.9595   46.2677   26.4668 C   0  0  2  0  0  0  0  0  0  0  0  0
  -40.6341   44.9967   26.6100 O   0  0  0  0  0  0  0  0  0  0  0  0
  -39.4019   46.3799   25.0698 C   0  0  0  0  0  0  0  0  0  0  0  0
  -39.7993   45.2107   24.2919 O   0  0  0  0  0  0  0  0  0  0  0  0
  -44.7076   44.2056   20.0603 H   0  0  0  0  0  0  0  0  0  0  0  0
  -43.2474   44.5592   19.3042 H   0  0  0  0  0  0  0  0  0  0  0  0
  -43.8344   42.9830   19.3042 H   0  0  0  0  0  0  0  0  0  0  0  0
  -38.5663   42.5462   32.0956 H   0  0  0  0  0  0  0  0  0  0  0  0
  -37.9830   38.9356   28.2794 H   0  0  0  0  0  0  0  0  0  0  0  0
  -37.4580   38.7473   29.9739 H   0  0  0  0  0  0  0  0  0  0  0  0
  -40.2139   42.5607   25.8690 H   0  0  0  0  0  0  0  0  0  0  0  0
  -42.6445   42.5662   21.0814 H   0  0  0  0  0  0  0  0  0  0  0  0
  -43.7476   43.6934   21.9458 H   0  0  0  0  0  0  0  0  0  0  0  0
  -41.5187   44.4791   28.4359 H   0  0  0  0  0  0  0  0  0  0  0  0
  -39.0278   45.1141   29.4653 H   0  0  0  0  0  0  0  0  0  0  0  0
  -40.3842   46.2924   30.4088 H   0  0  0  0  0  0  0  0  0  0  0  0
  -37.9737   45.7840   27.3351 H   0  0  0  0  0  0  0  0  0  0  0  0
  -38.5408   47.6609   28.9534 H   0  0  0  0  0  0  0  0  0  0  0  0
  -41.4014   43.6382   22.9832 H   0  0  0  0  0  0  0  0  0  0  0  0
  -40.5988   47.1575   26.5653 H   0  0  0  0  0  0  0  0  0  0  0  0
  -39.7933   47.2894   24.5907 H   0  0  0  0  0  0  0  0  0  0  0  0
  -38.3041   46.4334   25.1164 H   0  0  0  0  0  0  0  0  0  0  0  0
  1  3  2  0
  1 15  1  0
  1 23  1  0
  2 15  1  0
  4 17  2  0
  4 20  2  0
  4 23  1  0
  4 27  1  1
  5  6  2  0
  5 10  1  0
  6  7  1  0
  7  8  2  0
  8  9  1  0
  8 14  1  0
  9 10  2  0
  9 12  1  0
 10 11  1  0
 12 13  2  0
 13 14  1  0
 16 14  1  0
 16 18  1  0
 16 25  1  0
 18 19  1  0
 18 21  1  0
 21 22  1  0
 21 24  1  0
 24 25  1  0
 24 26  1  0
 26 27  1  0
  2 28  1  0
  2 29  1  0
  2 30  1  0
  6 31  1  0
 11 32  1  0
 11 33  1  0
 13 34  1  0
 15 35  1  0
 15 36  1  0
 16 37  1  1
 18 38  1  1
 19 39  1  0
 21 40  1  6
 22 41  1  0
 23 42  1  0
 24 43  1  1
 26 44  1  0
 26 45  1  0
M  CHG  1   2   1
M  END
>  <filename_input>  (6) 
8SLG_G5A_docked.sdf

>  <pdb_id>  (6) 
8SLG_G5A

>  <pose_rank>  (6) 
5

>  <num_atoms_heavy>  (6) 
27

>  <num_torsions>  (6) 
6

>  <pose>  (6) 
[-40.538672194744954, 44.54876295065179, 27.941165938086037, 0.12548638705898724, 2.204852196893335, 1.3548518604441622, -0.9304940773191208, -11.495982283891168, -39.050429638093874, -32.98116421124122, -8.701860550192404, 6.057186919708186]

>  <energy>  (6) 
-750.5664795221231

>  <inter_energy>  (6) 
-776.2892801809537

>  <intra_energy>  (6) 
27.52129979883659

>  <rmsd>  (6) 
7.47898

>  <sdf_rank>  (6) 
0

$$$$

     RDKit          3D

 45 47  0  0  0  0  0  0  0  0999 V2000
  -41.7432   45.3007   21.4257 C   0  0  0  0  0  0  0  0  0  0  0  0
  -41.3647   47.1011   19.8427 N   0  0  0  0  0  0  0  0  0  0  0  0
  -40.7922   45.6899   22.0815 O   0  0  0  0  0  0  0  0  0  0  0  0
  -42.6155   43.8241   23.3901 S   0  0  1  0  0  0  0  0  0  0  0  0
  -39.4450   41.1863   31.6006 N   0  0  0  0  0  0  0  0  0  0  0  0
  -39.9110   42.4363   31.6533 C   0  0  0  0  0  0  0  0  0  0  0  0
  -39.9725   43.3477   30.6914 N   0  0  0  0  0  0  0  0  0  0  0  0
  -39.4770   42.8573   29.5479 C   0  0  0  0  0  0  0  0  0  0  0  0
  -38.9621   41.5997   29.3369 C   0  0  0  0  0  0  0  0  0  0  0  0
  -38.9474   40.7218   30.4327 C   0  0  0  0  0  0  0  0  0  0  0  0
  -38.4812   39.4796   30.3834 N   0  0  0  0  0  0  0  0  0  0  0  0
  -38.5484   41.4683   28.0193 N   0  0  0  0  0  0  0  0  0  0  0  0
  -38.8168   42.6300   27.4711 C   0  0  0  0  0  0  0  0  0  0  0  0
  -39.3845   43.5107   28.3526 N   0  0  0  0  0  0  0  0  0  0  0  0
  -41.9608   45.7747   20.0170 C   0  0  0  0  0  0  0  0  0  0  0  0
  -39.8083   44.8786   28.1143 C   0  0  1  0  0  0  0  0  0  0  0  0
  -43.9004   43.2987   23.6379 O   0  0  0  0  0  0  0  0  0  0  0  0
  -39.0259   45.5590   26.9950 C   0  0  2  0  0  0  0  0  0  0  0  0
  -38.7675   46.9036   27.3219 O   0  0  0  0  0  0  0  0  0  0  0  0
  -41.4804   42.9934   23.4761 O   0  0  0  0  0  0  0  0  0  0  0  0
  -39.9693   45.4185   25.8001 C   0  0  2  0  0  0  0  0  0  0  0  0
  -39.7664   46.4494   24.8461 O   0  0  0  0  0  0  0  0  0  0  0  0
  -42.6352   44.4355   21.8882 N   0  0  0  0  0  0  0  0  0  0  0  0
  -41.3377   45.5412   26.4754 C   0  0  2  0  0  0  0  0  0  0  0  0
  -41.1654   44.8620   27.7404 O   0  0  0  0  0  0  0  0  0  0  0  0
  -42.4931   44.9199   25.7309 C   0  0  0  0  0  0  0  0  0  0  0  0
  -42.2764   45.0573   24.2941 O   0  0  0  0  0  0  0  0  0  0  0  0
  -41.1776   47.5174   20.7661 H   0  0  0  0  0  0  0  0  0  0  0  0
  -40.4815   47.0146   19.3198 H   0  0  0  0  0  0  0  0  0  0  0  0
  -42.0157   47.7041   19.3198 H   0  0  0  0  0  0  0  0  0  0  0  0
  -40.2983   42.7554   32.6322 H   0  0  0  0  0  0  0  0  0  0  0  0
  -38.0982   39.1078   29.5025 H   0  0  0  0  0  0  0  0  0  0  0  0
  -38.5027   38.8876   31.2260 H   0  0  0  0  0  0  0  0  0  0  0  0
  -38.6084   42.8701   26.4180 H   0  0  0  0  0  0  0  0  0  0  0  0
  -41.4908   45.0681   19.3171 H   0  0  0  0  0  0  0  0  0  0  0  0
  -43.0407   45.8322   19.8156 H   0  0  0  0  0  0  0  0  0  0  0  0
  -39.6315   45.4430   29.0418 H   0  0  0  0  0  0  0  0  0  0  0  0
  -38.0351   45.1219   26.8022 H   0  0  0  0  0  0  0  0  0  0  0  0
  -38.7478   47.0060   28.3064 H   0  0  0  0  0  0  0  0  0  0  0  0
  -39.8305   44.4880   25.2300 H   0  0  0  0  0  0  0  0  0  0  0  0
  -39.5981   47.3048   25.3153 H   0  0  0  0  0  0  0  0  0  0  0  0
  -43.3879   44.1327   21.2537 H   0  0  0  0  0  0  0  0  0  0  0  0
  -41.6109   46.6047   26.5416 H   0  0  0  0  0  0  0  0  0  0  0  0
  -42.5655   43.8534   25.9905 H   0  0  0  0  0  0  0  0  0  0  0  0
  -43.4266   45.4298   26.0114 H   0  0  0  0  0  0  0  0  0  0  0  0
  1  3  2  0
  1 15  1  0
  1 23  1  0
  2 15  1  0
  4 17  2  0
  4 20  2  0
  4 23  1  0
  4 27  1  1
  5  6  2  0
  5 10  1  0
  6  7  1  0
  7  8  2  0
  8  9  1  0
  8 14  1  0
  9 10  2  0
  9 12  1  0
 10 11  1  0
 12 13  2  0
 13 14  1  0
 16 14  1  0
 16 18  1  0
 16 25  1  0
 18 19  1  0
 18 21  1  0
 21 22  1  0
 21 24  1  0
 24 25  1  0
 24 26  1  0
 26 27  1  0
  2 28  1  0
  2 29  1  0
  2 30  1  0
  6 31  1  0
 11 32  1  0
 11 33  1  0
 13 34  1  0
 15 35  1  0
 15 36  1  0
 16 37  1  1
 18 38  1  6
 19 39  1  0
 21 40  1  6
 22 41  1  0
 23 42  1  0
 24 43  1  1
 26 44  1  0
 26 45  1  0
M  CHG  1   2   1
M  END
>  <filename_input>  (7) 
8SLG_G5A_docked.sdf

>  <pdb_id>  (7) 
8SLG_G5A

>  <pose_rank>  (7) 
6

>  <num_atoms_heavy>  (7) 
27

>  <num_torsions>  (7) 
6

>  <pose>  (7) 
[-39.80831313318824, 44.87863364917404, 28.11430638151185, -0.9075556870946004, -2.54494778324071, -0.26357356065453935, -5.308625643763179, 4.654973012874906, -1.5967462755955864, -2.427038100288391, 1.8704730353229602, -0.7103659861816651]

>  <energy>  (7) 
-681.878343714744

>  <inter_energy>  (7) 
-712.7536558545322

>  <intra_energy>  (7) 
29.911859912189254

>  <rmsd>  (7) 
7.63147

>  <sdf_rank>  (7) 
0

$$$$

     RDKit          3D

 45 47  0  0  0  0  0  0  0  0999 V2000
  -44.9459   43.7948   24.3551 C   0  0  0  0  0  0  0  0  0  0  0  0
  -46.7631   42.3868   25.1335 N   0  0  0  0  0  0  0  0  0  0  0  0
  -44.1503   43.9290   25.2690 O   0  0  0  0  0  0  0  0  0  0  0  0
  -43.0404   43.7524   22.5755 S   0  0  1  0  0  0  0  0  0  0  0  0
  -40.1701   40.7511   30.0042 N   0  0  0  0  0  0  0  0  0  0  0  0
  -41.1734   41.6095   29.8075 C   0  0  0  0  0  0  0  0  0  0  0  0
  -41.1935   42.7217   29.0848 N   0  0  0  0  0  0  0  0  0  0  0  0
  -40.0010   42.9311   28.5124 C   0  0  0  0  0  0  0  0  0  0  0  0
  -38.8778   42.1451   28.6205 C   0  0  0  0  0  0  0  0  0  0  0  0
  -38.9771   40.9923   29.4160 C   0  0  0  0  0  0  0  0  0  0  0  0
  -37.9796   40.1392   29.6160 N   0  0  0  0  0  0  0  0  0  0  0  0
  -37.8392   42.6926   27.8815 N   0  0  0  0  0  0  0  0  0  0  0  0
  -38.3478   43.7802   27.3519 C   0  0  0  0  0  0  0  0  0  0  0  0
  -39.6584   43.9728   27.6990 N   0  0  0  0  0  0  0  0  0  0  0  0
  -46.4229   43.7146   24.6172 C   0  0  0  0  0  0  0  0  0  0  0  0
  -40.5434   45.0576   27.3147 C   0  0  1  0  0  0  0  0  0  0  0  0
  -42.4299   42.5720   23.0472 O   0  0  0  0  0  0  0  0  0  0  0  0
  -39.7989   46.3517   27.0005 C   0  0  2  0  0  0  0  0  0  0  0  0
  -40.5153   47.4621   27.4858 O   0  0  0  0  0  0  0  0  0  0  0  0
  -43.0719   44.0321   21.1946 O   0  0  0  0  0  0  0  0  0  0  0  0
  -39.7230   46.3267   25.4736 C   0  0  2  0  0  0  0  0  0  0  0  0
  -39.6368   47.6347   24.9300 O   0  0  0  0  0  0  0  0  0  0  0  0
  -44.5805   43.7245   23.0825 N   0  0  0  0  0  0  0  0  0  0  0  0
  -41.0512   45.6563   25.1130 C   0  0  2  0  0  0  0  0  0  0  0  0
  -41.2391   44.6702   26.1538 O   0  0  0  0  0  0  0  0  0  0  0  0
  -41.0964   44.9745   23.7683 C   0  0  0  0  0  0  0  0  0  0  0  0
  -42.4516   45.0471   23.2312 O   0  0  0  0  0  0  0  0  0  0  0  0
  -46.7579   42.4072   26.1633 H   0  0  0  0  0  0  0  0  0  0  0  0
  -47.7000   42.1186   24.8002 H   0  0  0  0  0  0  0  0  0  0  0  0
  -46.0707   41.7010   24.8002 H   0  0  0  0  0  0  0  0  0  0  0  0
  -42.1161   41.3592   30.3161 H   0  0  0  0  0  0  0  0  0  0  0  0
  -37.0632   40.3060   29.1762 H   0  0  0  0  0  0  0  0  0  0  0  0
  -38.1220   39.3105   30.2109 H   0  0  0  0  0  0  0  0  0  0  0  0
  -37.7829   44.4629   26.7001 H   0  0  0  0  0  0  0  0  0  0  0  0
  -46.7045   44.4777   25.3577 H   0  0  0  0  0  0  0  0  0  0  0  0
  -46.9686   43.8903   23.6784 H   0  0  0  0  0  0  0  0  0  0  0  0
  -41.2135   45.2510   28.1653 H   0  0  0  0  0  0  0  0  0  0  0  0
  -38.8071   46.4312   27.4695 H   0  0  0  0  0  0  0  0  0  0  0  0
  -40.5087   47.4520   28.4757 H   0  0  0  0  0  0  0  0  0  0  0  0
  -38.8360   45.8086   25.0802 H   0  0  0  0  0  0  0  0  0  0  0  0
  -39.5932   48.2957   25.6657 H   0  0  0  0  0  0  0  0  0  0  0  0
  -45.3215   43.6472   22.3712 H   0  0  0  0  0  0  0  0  0  0  0  0
  -41.8339   46.4260   25.0423 H   0  0  0  0  0  0  0  0  0  0  0  0
  -40.4015   45.4766   23.0791 H   0  0  0  0  0  0  0  0  0  0  0  0
  -40.8030   43.9204   23.8816 H   0  0  0  0  0  0  0  0  0  0  0  0
  1  3  2  0
  1 15  1  0
  1 23  1  0
  2 15  1  0
  4 17  2  0
  4 20  2  0
  4 23  1  0
  4 27  1  1
  5  6  2  0
  5 10  1  0
  6  7  1  0
  7  8  2  0
  8  9  1  0
  8 14  1  0
  9 10  2  0
  9 12  1  0
 10 11  1  0
 12 13  2  0
 13 14  1  0
 16 14  1  0
 16 18  1  0
 16 25  1  0
 18 19  1  0
 18 21  1  0
 21 22  1  0
 21 24  1  0
 24 25  1  0
 24 26  1  0
 26 27  1  0
  2 28  1  0
  2 29  1  0
  2 30  1  0
  6 31  1  0
 11 32  1  0
 11 33  1  0
 13 34  1  0
 15 35  1  0
 15 36  1  0
 16 37  1  1
 18 38  1  1
 19 39  1  0
 21 40  1  1
 22 41  1  0
 23 42  1  0
 24 43  1  6
 26 44  1  0
 26 45  1  0
M  CHG  1   2   1
M  END
>  <filename_input>  (8) 
8SLG_G5A_docked.sdf

>  <pdb_id>  (8) 
8SLG_G5A

>  <pose_rank>  (8) 
7

>  <num_atoms_heavy>  (8) 
27

>  <num_torsions>  (8) 
6

>  <pose>  (8) 
[-40.54335798661924, 45.057585302268194, 27.31470972283538, 0.026519540817190778, 2.962755157410258, 0.7552534195758052, -5.303035218989473, 15.219607077727593, 12.46663694543902, -2.8845507078556483, -6.0892215079218905, -1.574013706148416]

>  <energy>  (8) 
-651.3605220936169

>  <inter_energy>  (8) 
-667.7095565755526

>  <intra_energy>  (8) 
16.439435826594078

>  <rmsd>  (8) 
7.04528

>  <sdf_rank>  (8) 
0

$$$$

     RDKit          3D

 45 47  0  0  0  0  0  0  0  0999 V2000
  -37.5868   39.7963   28.3708 C   0  0  0  0  0  0  0  0  0  0  0  0
  -38.5063   38.5213   30.2200 N   0  0  0  0  0  0  0  0  0  0  0  0
  -36.7737   39.8180   27.4628 O   0  0  0  0  0  0  0  0  0  0  0  0
  -37.3418   42.3601   28.7793 S   0  0  1  0  0  0  0  0  0  0  0  0
  -42.5823   44.1611   20.3354 N   0  0  0  0  0  0  0  0  0  0  0  0
  -43.0674   43.5761   21.4330 C   0  0  0  0  0  0  0  0  0  0  0  0
  -42.7205   43.7571   22.7005 N   0  0  0  0  0  0  0  0  0  0  0  0
  -41.7433   44.6682   22.7941 C   0  0  0  0  0  0  0  0  0  0  0  0
  -41.1427   45.3517   21.7630 C   0  0  0  0  0  0  0  0  0  0  0  0
  -41.5933   45.0738   20.4625 C   0  0  0  0  0  0  0  0  0  0  0  0
  -41.1098   45.6516   19.3692 N   0  0  0  0  0  0  0  0  0  0  0  0
  -40.1730   46.2100   22.2603 N   0  0  0  0  0  0  0  0  0  0  0  0
  -40.2067   46.0296   23.5597 C   0  0  0  0  0  0  0  0  0  0  0  0
  -41.1440   45.1065   23.9400 N   0  0  0  0  0  0  0  0  0  0  0  0
  -38.2647   38.5183   28.7754 C   0  0  0  0  0  0  0  0  0  0  0  0
  -41.4641   44.6447   25.2785 C   0  0  1  0  0  0  0  0  0  0  0  0
  -37.9012   43.2161   29.7502 O   0  0  0  0  0  0  0  0  0  0  0  0
  -41.6441   43.1318   25.3603 C   0  0  2  0  0  0  0  0  0  0  0  0
  -42.7030   42.8082   26.2295 O   0  0  0  0  0  0  0  0  0  0  0  0
  -35.9427   42.2363   28.6638 O   0  0  0  0  0  0  0  0  0  0  0  0
  -40.2882   42.6663   25.8919 C   0  0  2  0  0  0  0  0  0  0  0  0
  -40.3944   41.4431   26.6036 O   0  0  0  0  0  0  0  0  0  0  0  0
  -37.9208   40.8732   29.0685 N   0  0  0  0  0  0  0  0  0  0  0  0
  -39.9105   43.8237   26.8200 C   0  0  2  0  0  0  0  0  0  0  0  0
  -40.4027   44.9973   26.1334 O   0  0  0  0  0  0  0  0  0  0  0  0
  -38.4363   43.9893   27.0932 C   0  0  0  0  0  0  0  0  0  0  0  0
  -37.8348   42.6803   27.3276 O   0  0  0  0  0  0  0  0  0  0  0  0
  -37.6052   38.5101   30.7188 H   0  0  0  0  0  0  0  0  0  0  0  0
  -39.0312   39.3689   30.4785 H   0  0  0  0  0  0  0  0  0  0  0  0
  -39.0522   37.6871   30.4785 H   0  0  0  0  0  0  0  0  0  0  0  0
  -43.8673   42.8405   21.2623 H   0  0  0  0  0  0  0  0  0  0  0  0
  -40.3561   46.3495   19.4459 H   0  0  0  0  0  0  0  0  0  0  0  0
  -41.4885   45.4021   18.4444 H   0  0  0  0  0  0  0  0  0  0  0  0
  -39.5533   46.5620   24.2665 H   0  0  0  0  0  0  0  0  0  0  0  0
  -39.2242   38.4299   28.2448 H   0  0  0  0  0  0  0  0  0  0  0  0
  -37.6186   37.6665   28.5167 H   0  0  0  0  0  0  0  0  0  0  0  0
  -42.4155   45.1144   25.5686 H   0  0  0  0  0  0  0  0  0  0  0  0
  -41.9084   42.6531   24.4059 H   0  0  0  0  0  0  0  0  0  0  0  0
  -42.4002   42.9008   27.1674 H   0  0  0  0  0  0  0  0  0  0  0  0
  -39.5479   42.4606   25.1048 H   0  0  0  0  0  0  0  0  0  0  0  0
  -40.3786   41.6250   27.5766 H   0  0  0  0  0  0  0  0  0  0  0  0
  -38.5902   40.7581   29.8428 H   0  0  0  0  0  0  0  0  0  0  0  0
  -40.3419   43.6408   27.8152 H   0  0  0  0  0  0  0  0  0  0  0  0
  -37.9539   44.4646   26.2264 H   0  0  0  0  0  0  0  0  0  0  0  0
  -38.2970   44.6214   27.9827 H   0  0  0  0  0  0  0  0  0  0  0  0
  1  3  2  0
  1 15  1  0
  1 23  1  0
  2 15  1  0
  4 17  2  0
  4 20  2  0
  4 23  1  0
  4 27  1  6
  5  6  2  0
  5 10  1  0
  6  7  1  0
  7  8  2  0
  8  9  1  0
  8 14  1  0
  9 10  2  0
  9 12  1  0
 10 11  1  0
 12 13  2  0
 13 14  1  0
 16 14  1  0
 16 18  1  0
 16 25  1  0
 18 19  1  0
 18 21  1  0
 21 22  1  0
 21 24  1  0
 24 25  1  0
 24 26  1  0
 26 27  1  0
  2 28  1  0
  2 29  1  0
  2 30  1  0
  6 31  1  0
 11 32  1  0
 11 33  1  0
 13 34  1  0
 15 35  1  0
 15 36  1  0
 16 37  1  1
 18 38  1  6
 19 39  1  0
 21 40  1  6
 22 41  1  0
 23 42  1  0
 24 43  1  1
 26 44  1  0
 26 45  1  0
M  CHG  1   2   1
M  END
>  <filename_input>  (9) 
8SLG_G5A_docked.sdf

>  <pdb_id>  (9) 
8SLG_G5A

>  <pose_rank>  (9) 
8

>  <num_atoms_heavy>  (9) 
27

>  <num_torsions>  (9) 
6

>  <pose>  (9) 
[-41.46413549790207, 44.64467699651951, 25.27853023306973, -2.1970943784415655, 0.74304573182297, -3.3506174445939467, -0.9277355554934369, -1.7807589273677609, 6.625148331808005, -2.9894055584121593, -4.0715506869875915, -3.9693500736788576]

>  <energy>  (9) 
-573.2323979782661

>  <inter_energy>  (9) 
-610.2753443491871

>  <intra_energy>  (9) 
37.477494178449675

>  <rmsd>  (9) 
2.95338

>  <sdf_rank>  (9) 
0

$$$$

     RDKit          3D

 45 47  0  0  0  0  0  0  0  0999 V2000
  -39.2242   41.2688   30.0486 C   0  0  0  0  0  0  0  0  0  0  0  0
  -39.0674   39.1632   28.8517 N   0  0  0  0  0  0  0  0  0  0  0  0
  -38.9938   41.6589   31.1803 O   0  0  0  0  0  0  0  0  0  0  0  0
  -41.3960   42.7037   29.8936 S   0  0  1  0  0  0  0  0  0  0  0  0
  -40.0052   45.8713   24.7112 N   0  0  0  0  0  0  0  0  0  0  0  0
  -40.7815   45.8032   25.7952 C   0  0  0  0  0  0  0  0  0  0  0  0
  -41.9665   45.2251   25.9408 N   0  0  0  0  0  0  0  0  0  0  0  0
  -42.3570   44.6591   24.7915 C   0  0  0  0  0  0  0  0  0  0  0  0
  -41.6745   44.6458   23.5977 C   0  0  0  0  0  0  0  0  0  0  0  0
  -40.4292   45.2936   23.5650 C   0  0  0  0  0  0  0  0  0  0  0  0
  -39.6572   45.3656   22.4871 N   0  0  0  0  0  0  0  0  0  0  0  0
  -42.4047   43.9598   22.6382 N   0  0  0  0  0  0  0  0  0  0  0  0
  -43.4953   43.5800   23.2616 C   0  0  0  0  0  0  0  0  0  0  0  0
  -43.5181   43.9749   24.5726 N   0  0  0  0  0  0  0  0  0  0  0  0
  -38.3022   40.3054   29.3568 C   0  0  0  0  0  0  0  0  0  0  0  0
  -44.5521   43.7465   25.5656 C   0  0  1  0  0  0  0  0  0  0  0  0
  -42.0503   42.0986   30.9864 O   0  0  0  0  0  0  0  0  0  0  0  0
  -45.3720   42.4887   25.2945 C   0  0  2  0  0  0  0  0  0  0  0  0
  -46.7289   42.7109   25.5961 O   0  0  0  0  0  0  0  0  0  0  0  0
  -40.7320   43.9358   30.0577 O   0  0  0  0  0  0  0  0  0  0  0  0
  -44.7253   41.4653   26.2284 C   0  0  2  0  0  0  0  0  0  0  0  0
  -45.6387   40.4467   26.6054 O   0  0  0  0  0  0  0  0  0  0  0  0
  -40.2913   41.6446   29.3572 N   0  0  0  0  0  0  0  0  0  0  0  0
  -44.3399   42.3424   27.4224 C   0  0  2  0  0  0  0  0  0  0  0  0
  -43.9333   43.5930   26.8207 O   0  0  0  0  0  0  0  0  0  0  0  0
  -43.2190   41.8182   28.2849 C   0  0  0  0  0  0  0  0  0  0  0  0
  -42.3392   42.9200   28.6621 O   0  0  0  0  0  0  0  0  0  0  0  0
  -39.4332   38.6172   29.6448 H   0  0  0  0  0  0  0  0  0  0  0  0
  -39.8523   39.5027   28.2775 H   0  0  0  0  0  0  0  0  0  0  0  0
  -38.4549   38.5665   28.2775 H   0  0  0  0  0  0  0  0  0  0  0  0
  -40.3823   46.2958   26.6941 H   0  0  0  0  0  0  0  0  0  0  0  0
  -39.9631   44.9316   21.6046 H   0  0  0  0  0  0  0  0  0  0  0  0
  -38.7524   45.8556   22.5335 H   0  0  0  0  0  0  0  0  0  0  0  0
  -44.3031   43.0069   22.7831 H   0  0  0  0  0  0  0  0  0  0  0  0
  -37.8067   40.8135   28.5164 H   0  0  0  0  0  0  0  0  0  0  0  0
  -37.5462   39.9488   30.0718 H   0  0  0  0  0  0  0  0  0  0  0  0
  -45.2346   44.6086   25.5326 H   0  0  0  0  0  0  0  0  0  0  0  0
  -45.3682   42.1610   24.2444 H   0  0  0  0  0  0  0  0  0  0  0  0
  -46.8496   42.7307   26.5785 H   0  0  0  0  0  0  0  0  0  0  0  0
  -43.8815   40.9221   25.7780 H   0  0  0  0  0  0  0  0  0  0  0  0
  -45.6856   40.3945   27.5929 H   0  0  0  0  0  0  0  0  0  0  0  0
  -40.4272   41.2382   28.4206 H   0  0  0  0  0  0  0  0  0  0  0  0
  -45.1941   42.4041   28.1127 H   0  0  0  0  0  0  0  0  0  0  0  0
  -43.6386   41.3573   29.1913 H   0  0  0  0  0  0  0  0  0  0  0  0
  -42.6451   41.0664   27.7233 H   0  0  0  0  0  0  0  0  0  0  0  0
  1  3  2  0
  1 15  1  0
  1 23  1  0
  2 15  1  0
  4 17  2  0
  4 20  2  0
  4 23  1  0
  4 27  1  6
  5  6  2  0
  5 10  1  0
  6  7  1  0
  7  8  2  0
  8  9  1  0
  8 14  1  0
  9 10  2  0
  9 12  1  0
 10 11  1  0
 12 13  2  0
 13 14  1  0
 16 14  1  0
 16 18  1  0
 16 25  1  0
 18 19  1  0
 18 21  1  0
 21 22  1  0
 21 24  1  0
 24 25  1  0
 24 26  1  0
 26 27  1  0
  2 28  1  0
  2 29  1  0
  2 30  1  0
  6 31  1  0
 11 32  1  0
 11 33  1  0
 13 34  1  0
 15 35  1  0
 15 36  1  0
 16 37  1  1
 18 38  1  6
 19 39  1  0
 21 40  1  6
 22 41  1  0
 23 42  1  0
 24 43  1  1
 26 44  1  0
 26 45  1  0
M  CHG  1   2   1
M  END
>  <filename_input>  (10) 
8SLG_G5A_docked.sdf

>  <pdb_id>  (10) 
8SLG_G5A

>  <pose_rank>  (10) 
9

>  <num_atoms_heavy>  (10) 
27

>  <num_torsions>  (10) 
6

>  <pose>  (10) 
[-44.55214013221234, 43.746513564824276, 25.565648362325, -1.3971576672704902, 2.018331059104984, -3.513777078421338, -10.642142923773688, -11.17474623177573, 17.656828086714455, 8.48760955270193, 4.163979886374201, 1.9918216294343611]

>  <energy>  (10) 
-520.191059374884

>  <inter_energy>  (10) 
-543.6827651906491

>  <intra_energy>  (10) 
24.998423515157782

>  <rmsd>  (10) 
4.39434

>  <sdf_rank>  (10) 
0

$$$$

     RDKit          3D

 45 47  0  0  0  0  0  0  0  0999 V2000
  -39.1240   45.7259   26.0328 C   0  0  0  0  0  0  0  0  0  0  0  0
  -39.6553   45.5191   28.3920 N   0  0  0  0  0  0  0  0  0  0  0  0
  -38.2208   44.9290   25.8452 O   0  0  0  0  0  0  0  0  0  0  0  0
  -40.1041   45.3214   23.6504 S   0  0  1  0  0  0  0  0  0  0  0  0
  -38.5299   40.9657   30.8389 N   0  0  0  0  0  0  0  0  0  0  0  0
  -38.8800   40.5427   29.6220 C   0  0  0  0  0  0  0  0  0  0  0  0
  -39.9517   40.8529   28.9044 N   0  0  0  0  0  0  0  0  0  0  0  0
  -40.7310   41.7130   29.5727 C   0  0  0  0  0  0  0  0  0  0  0  0
  -40.5089   42.2351   30.8254 C   0  0  0  0  0  0  0  0  0  0  0  0
  -39.3397   41.8306   31.4895 C   0  0  0  0  0  0  0  0  0  0  0  0
  -38.9914   42.2472   32.7012 N   0  0  0  0  0  0  0  0  0  0  0  0
  -41.5428   43.0911   31.1759 N   0  0  0  0  0  0  0  0  0  0  0  0
  -42.3549   43.0680   30.1453 C   0  0  0  0  0  0  0  0  0  0  0  0
  -41.9099   42.2499   29.1413 N   0  0  0  0  0  0  0  0  0  0  0  0
  -39.2565   46.4559   27.3390 C   0  0  0  0  0  0  0  0  0  0  0  0
  -42.5367   41.9684   27.8625 C   0  0  1  0  0  0  0  0  0  0  0  0
  -40.8797   46.1659   22.8296 O   0  0  0  0  0  0  0  0  0  0  0  0
  -43.5225   43.0498   27.4306 C   0  0  2  0  0  0  0  0  0  0  0  0
  -44.6510   42.4716   26.8193 O   0  0  0  0  0  0  0  0  0  0  0  0
  -38.7802   45.0011   23.2890 O   0  0  0  0  0  0  0  0  0  0  0  0
  -42.6916   43.8834   26.4547 C   0  0  2  0  0  0  0  0  0  0  0  0
  -43.5075   44.5398   25.4969 O   0  0  0  0  0  0  0  0  0  0  0  0
  -40.0345   46.0167   25.1138 N   0  0  0  0  0  0  0  0  0  0  0  0
  -41.8168   42.8090   25.8036 C   0  0  2  0  0  0  0  0  0  0  0  0
  -41.5282   41.8915   26.8834 O   0  0  0  0  0  0  0  0  0  0  0  0
  -40.5206   43.2948   25.2043 C   0  0  0  0  0  0  0  0  0  0  0  0
  -40.7887   43.9393   23.9225 O   0  0  0  0  0  0  0  0  0  0  0  0
  -39.4753   45.9419   29.3138 H   0  0  0  0  0  0  0  0  0  0  0  0
  -40.6594   45.3079   28.3013 H   0  0  0  0  0  0  0  0  0  0  0  0
  -39.1118   44.6489   28.3013 H   0  0  0  0  0  0  0  0  0  0  0  0
  -38.1814   39.8377   29.1476 H   0  0  0  0  0  0  0  0  0  0  0  0
  -39.5956   42.9062   33.2126 H   0  0  0  0  0  0  0  0  0  0  0  0
  -38.1171   41.9113   33.1296 H   0  0  0  0  0  0  0  0  0  0  0  0
  -43.2911   43.6432   30.0935 H   0  0  0  0  0  0  0  0  0  0  0  0
  -38.2906   46.9117   27.6023 H   0  0  0  0  0  0  0  0  0  0  0  0
  -40.0216   47.2400   27.2412 H   0  0  0  0  0  0  0  0  0  0  0  0
  -43.0944   41.0264   27.9710 H   0  0  0  0  0  0  0  0  0  0  0  0
  -43.9287   43.6512   28.2572 H   0  0  0  0  0  0  0  0  0  0  0  0
  -45.2763   42.1512   27.5167 H   0  0  0  0  0  0  0  0  0  0  0  0
  -42.1251   44.6959   26.9332 H   0  0  0  0  0  0  0  0  0  0  0  0
  -44.1881   45.0873   25.9629 H   0  0  0  0  0  0  0  0  0  0  0  0
  -40.7421   46.7289   25.3439 H   0  0  0  0  0  0  0  0  0  0  0  0
  -42.3558   42.3783   24.9468 H   0  0  0  0  0  0  0  0  0  0  0  0
  -40.0494   44.0175   25.8866 H   0  0  0  0  0  0  0  0  0  0  0  0
  -39.8447   42.4407   25.0509 H   0  0  0  0  0  0  0  0  0  0  0  0
  1  3  2  0
  1 15  1  0
  1 23  1  0
  2 15  1  0
  4 17  2  0
  4 20  2  0
  4 23  1  0
  4 27  1  1
  5  6  2  0
  5 10  1  0
  6  7  1  0
  7  8  2  0
  8  9  1  0
  8 14  1  0
  9 10  2  0
  9 12  1  0
 10 11  1  0
 12 13  2  0
 13 14  1  0
 16 14  1  0
 16 18  1  0
 16 25  1  0
 18 19  1  0
 18 21  1  0
 21 22  1  0
 21 24  1  0
 24 25  1  0
 24 26  1  0
 26 27  1  0
  2 28  1  0
  2 29  1  0
  2 30  1  0
  6 31  1  0
 11 32  1  0
 11 33  1  0
 13 34  1  0
 15 35  1  0
 15 36  1  0
 16 37  1  1
 18 38  1  1
 19 39  1  0
 21 40  1  1
 22 41  1  0
 23 42  1  0
 24 43  1  6
 26 44  1  0
 26 45  1  0
M  CHG  1   2   1
M  END
>  <filename_input>  (11) 
8SLG_G5A_docked.sdf

>  <pdb_id>  (11) 
8SLG_G5A

>  <pose_rank>  (11) 
10

>  <num_atoms_heavy>  (11) 
27

>  <num_torsions>  (11) 
6

>  <pose>  (11) 
[-42.53672174282624, 41.968384708603125, 27.862482237356964, -1.867892185012098, 1.7276299490454197, 0.5488509033836498, 1.8343644773021928, -2.384650716150741, -1.6758389607519681, 0.38779796570965364, 2.514201945229929, -1.4535214036239417]

>  <energy>  (11) 
-533.8416580846774

>  <inter_energy>  (11) 
-601.8879666834337

>  <intra_energy>  (11) 
73.89077399699502

>  <rmsd>  (11) 
7.28856

>  <sdf_rank>  (11) 
0

$$$$

     RDKit          3D

 45 47  0  0  0  0  0  0  0  0999 V2000
  -41.1716   45.0056   22.4363 C   0  0  0  0  0  0  0  0  0  0  0  0
  -42.8769   43.2869   22.2665 N   0  0  0  0  0  0  0  0  0  0  0  0
  -40.4382   45.8861   22.0206 O   0  0  0  0  0  0  0  0  0  0  0  0
  -40.0969   45.0993   24.8103 S   0  0  1  0  0  0  0  0  0  0  0  0
  -47.0233   41.6279   28.3617 N   0  0  0  0  0  0  0  0  0  0  0  0
  -46.1534   41.5410   29.3708 C   0  0  0  0  0  0  0  0  0  0  0  0
  -44.8792   41.9076   29.4110 N   0  0  0  0  0  0  0  0  0  0  0  0
  -44.5019   42.4238   28.2341 C   0  0  0  0  0  0  0  0  0  0  0  0
  -45.2756   42.5773   27.1077 C   0  0  0  0  0  0  0  0  0  0  0  0
  -46.6109   42.1499   27.1850 C   0  0  0  0  0  0  0  0  0  0  0  0
  -47.4767   42.2320   26.1816 N   0  0  0  0  0  0  0  0  0  0  0  0
  -44.5277   43.1504   26.0895 N   0  0  0  0  0  0  0  0  0  0  0  0
  -43.3374   43.3273   26.6130 C   0  0  0  0  0  0  0  0  0  0  0  0
  -43.2656   42.9066   27.9141 N   0  0  0  0  0  0  0  0  0  0  0  0
  -42.2045   44.3721   21.5484 C   0  0  0  0  0  0  0  0  0  0  0  0
  -42.1236   42.9362   28.8100 C   0  0  1  0  0  0  0  0  0  0  0  0
  -38.8986   45.4522   24.1559 O   0  0  0  0  0  0  0  0  0  0  0  0
  -41.3525   41.6199   28.8369 C   0  0  2  0  0  0  0  0  0  0  0  0
  -40.9251   41.3264   30.1455 O   0  0  0  0  0  0  0  0  0  0  0  0
  -40.8114   46.0624   25.5506 O   0  0  0  0  0  0  0  0  0  0  0  0
  -40.1856   41.9014   27.8899 C   0  0  2  0  0  0  0  0  0  0  0  0
  -39.0516   41.1075   28.2024 O   0  0  0  0  0  0  0  0  0  0  0  0
  -41.1088   44.5366   23.6749 N   0  0  0  0  0  0  0  0  0  0  0  0
  -39.9231   43.3850   28.1615 C   0  0  2  0  0  0  0  0  0  0  0  0
  -41.2418   43.9410   28.3690 O   0  0  0  0  0  0  0  0  0  0  0  0
  -39.2335   44.1413   27.0535 C   0  0  0  0  0  0  0  0  0  0  0  0
  -39.9226   43.8910   25.7914 O   0  0  0  0  0  0  0  0  0  0  0  0
  -42.7837   43.4373   23.2812 H   0  0  0  0  0  0  0  0  0  0  0  0
  -43.8748   43.2731   22.0116 H   0  0  0  0  0  0  0  0  0  0  0  0
  -42.4450   42.3873   22.0116 H   0  0  0  0  0  0  0  0  0  0  0  0
  -46.5490   41.1040   30.2995 H   0  0  0  0  0  0  0  0  0  0  0  0
  -47.1811   42.6267   25.2773 H   0  0  0  0  0  0  0  0  0  0  0  0
  -48.4438   41.9008   26.3075 H   0  0  0  0  0  0  0  0  0  0  0  0
  -42.4897   43.7659   26.0661 H   0  0  0  0  0  0  0  0  0  0  0  0
  -42.9460   45.1290   21.2528 H   0  0  0  0  0  0  0  0  0  0  0  0
  -41.7132   43.9652   20.6522 H   0  0  0  0  0  0  0  0  0  0  0  0
  -42.5070   43.1241   29.8238 H   0  0  0  0  0  0  0  0  0  0  0  0
  -41.9404   40.7422   28.5304 H   0  0  0  0  0  0  0  0  0  0  0  0
  -41.5401   41.7488   30.7962 H   0  0  0  0  0  0  0  0  0  0  0  0
  -40.4004   41.6678   26.8366 H   0  0  0  0  0  0  0  0  0  0  0  0
  -38.9563   41.0407   29.1855 H   0  0  0  0  0  0  0  0  0  0  0  0
  -41.7425   43.7665   23.9320 H   0  0  0  0  0  0  0  0  0  0  0  0
  -39.2307   43.4770   29.0112 H   0  0  0  0  0  0  0  0  0  0  0  0
  -39.2554   45.2183   27.2759 H   0  0  0  0  0  0  0  0  0  0  0  0
  -38.1894   43.8043   26.9743 H   0  0  0  0  0  0  0  0  0  0  0  0
  1  3  2  0
  1 15  1  0
  1 23  1  0
  2 15  1  0
  4 17  2  0
  4 20  2  0
  4 23  1  0
  4 27  1  1
  5  6  2  0
  5 10  1  0
  6  7  1  0
  7  8  2  0
  8  9  1  0
  8 14  1  0
  9 10  2  0
  9 12  1  0
 10 11  1  0
 12 13  2  0
 13 14  1  0
 16 14  1  0
 16 18  1  0
 16 25  1  0
 18 19  1  0
 18 21  1  0
 21 22  1  0
 21 24  1  0
 24 25  1  0
 24 26  1  0
 26 27  1  0
  2 28  1  0
  2 29  1  0
  2 30  1  0
  6 31  1  0
 11 32  1  0
 11 33  1  0
 13 34  1  0
 15 35  1  0
 15 36  1  0
 16 37  1  1
 18 38  1  6
 19 39  1  0
 21 40  1  6
 22 41  1  0
 23 42  1  0
 24 43  1  1
 26 44  1  0
 26 45  1  0
M  CHG  1   2   1
M  END
>  <filename_input>  (12) 
8SLG_G5A_docked.sdf

>  <pdb_id>  (12) 
8SLG_G5A

>  <pose_rank>  (12) 
11

>  <num_atoms_heavy>  (12) 
27

>  <num_torsions>  (12) 
6

>  <pose>  (12) 
[-42.12359809006999, 42.93616964036064, 28.81000022378499, -3.0061467823264794, -1.0833049223322229, -1.9785640415396963, -0.21090971653306634, 6.1225016863988175, -1.5582790318087762, -2.0080589555403527, -1.5765396032022305, 2.833454801438905]

>  <energy>  (12) 
-546.0440142562558

>  <inter_energy>  (12) 
-554.6252021410312

>  <intra_energy>  (12) 
16.985275036796175

>  <rmsd>  (12) 
6.83997

>  <sdf_rank>  (12) 
0

$$$$

     RDKit          3D

 45 47  0  0  0  0  0  0  0  0999 V2000
  -38.5139   40.4773   31.1200 C   0  0  0  0  0  0  0  0  0  0  0  0
  -37.5709   41.9757   32.7802 N   0  0  0  0  0  0  0  0  0  0  0  0
  -38.6352   39.4019   30.5589 O   0  0  0  0  0  0  0  0  0  0  0  0
  -39.6445   41.7450   29.1415 S   0  0  1  0  0  0  0  0  0  0  0  0
  -42.3552   45.5027   20.0038 N   0  0  0  0  0  0  0  0  0  0  0  0
  -43.0184   44.6524   20.7909 C   0  0  0  0  0  0  0  0  0  0  0  0
  -42.7804   44.3212   22.0531 N   0  0  0  0  0  0  0  0  0  0  0  0
  -41.7097   44.9788   22.5169 C   0  0  0  0  0  0  0  0  0  0  0  0
  -40.9266   45.8789   21.8330 C   0  0  0  0  0  0  0  0  0  0  0  0
  -41.2760   46.1481   20.4999 C   0  0  0  0  0  0  0  0  0  0  0  0
  -40.6158   46.9906   19.7143 N   0  0  0  0  0  0  0  0  0  0  0  0
  -39.9105   46.3472   22.6531 N   0  0  0  0  0  0  0  0  0  0  0  0
  -40.0972   45.7300   23.7961 C   0  0  0  0  0  0  0  0  0  0  0  0
  -41.1776   44.8889   23.7711 N   0  0  0  0  0  0  0  0  0  0  0  0
  -37.8836   40.5767   32.4799 C   0  0  0  0  0  0  0  0  0  0  0  0
  -41.6866   44.0423   24.8349 C   0  0  1  0  0  0  0  0  0  0  0  0
  -39.1632   40.6885   28.3412 O   0  0  0  0  0  0  0  0  0  0  0  0
  -41.5840   42.5543   24.5136 C   0  0  2  0  0  0  0  0  0  0  0  0
  -42.7241   41.8709   24.9770 O   0  0  0  0  0  0  0  0  0  0  0  0
  -41.0244   41.8675   29.4003 O   0  0  0  0  0  0  0  0  0  0  0  0
  -40.3131   42.1428   25.2571 C   0  0  2  0  0  0  0  0  0  0  0  0
  -40.3334   40.7690   25.6126 O   0  0  0  0  0  0  0  0  0  0  0  0
  -38.9075   41.6229   30.5808 N   0  0  0  0  0  0  0  0  0  0  0  0
  -40.3780   43.0427   26.4939 C   0  0  2  0  0  0  0  0  0  0  0  0
  -40.9259   44.2842   25.9944 O   0  0  0  0  0  0  0  0  0  0  0  0
  -39.0595   43.3186   27.1726 C   0  0  0  0  0  0  0  0  0  0  0  0
  -39.2110   43.1549   28.6149 O   0  0  0  0  0  0  0  0  0  0  0  0
  -37.5410   42.1094   33.8010 H   0  0  0  0  0  0  0  0  0  0  0  0
  -36.6551   42.2174   32.3753 H   0  0  0  0  0  0  0  0  0  0  0  0
  -38.2966   42.5843   32.3753 H   0  0  0  0  0  0  0  0  0  0  0  0
  -43.8841   44.1566   20.3274 H   0  0  0  0  0  0  0  0  0  0  0  0
  -39.7910   47.4917   20.0744 H   0  0  0  0  0  0  0  0  0  0  0  0
  -40.9283   47.1432   18.7448 H   0  0  0  0  0  0  0  0  0  0  0  0
  -39.4556   45.8726   24.6782 H   0  0  0  0  0  0  0  0  0  0  0  0
  -38.5821   40.1882   33.2356 H   0  0  0  0  0  0  0  0  0  0  0  0
  -36.9559   39.9857   32.4946 H   0  0  0  0  0  0  0  0  0  0  0  0
  -42.7508   44.2869   24.9678 H   0  0  0  0  0  0  0  0  0  0  0  0
  -41.5361   42.3234   23.4392 H   0  0  0  0  0  0  0  0  0  0  0  0
  -42.7278   41.8687   25.9670 H   0  0  0  0  0  0  0  0  0  0  0  0
  -39.3934   42.2577   24.6647 H   0  0  0  0  0  0  0  0  0  0  0  0
  -40.3346   40.6833   26.5988 H   0  0  0  0  0  0  0  0  0  0  0  0
  -38.7341   42.4898   31.1094 H   0  0  0  0  0  0  0  0  0  0  0  0
  -40.9724   42.5410   27.2717 H   0  0  0  0  0  0  0  0  0  0  0  0
  -38.3013   42.6135   26.8012 H   0  0  0  0  0  0  0  0  0  0  0  0
  -38.7419   44.3484   26.9518 H   0  0  0  0  0  0  0  0  0  0  0  0
  1  3  2  0
  1 15  1  0
  1 23  1  0
  2 15  1  0
  4 17  2  0
  4 20  2  0
  4 23  1  0
  4 27  1  6
  5  6  2  0
  5 10  1  0
  6  7  1  0
  7  8  2  0
  8  9  1  0
  8 14  1  0
  9 10  2  0
  9 12  1  0
 10 11  1  0
 12 13  2  0
 13 14  1  0
 16 14  1  0
 16 18  1  0
 16 25  1  0
 18 19  1  0
 18 21  1  0
 21 22  1  0
 21 24  1  0
 24 25  1  0
 24 26  1  0
 26 27  1  0
  2 28  1  0
  2 29  1  0
  2 30  1  0
  6 31  1  0
 11 32  1  0
 11 33  1  0
 13 34  1  0
 15 35  1  0
 15 36  1  0
 16 37  1  1
 18 38  1  6
 19 39  1  0
 21 40  1  6
 22 41  1  0
 23 42  1  0
 24 43  1  1
 26 44  1  0
 26 45  1  0
M  CHG  1   2   1
M  END
>  <filename_input>  (13) 
8SLG_G5A_docked.sdf

>  <pdb_id>  (13) 
8SLG_G5A

>  <pose_rank>  (13) 
12

>  <num_atoms_heavy>  (13) 
27

>  <num_torsions>  (13) 
6

>  <pose>  (13) 
[-41.68658072125855, 44.04229966368241, 24.83488342213346, -1.7828711956659553, 1.0577460989888996, -3.1232132910739567, -0.5597005262239354, -3.3768238964310378, -2.945461332250741, -2.7425989225909864, -1.4925613736718137, 2.6677666520182903]

>  <energy>  (13) 
-569.1167958837066

>  <inter_energy>  (13) 
-612.8630798406256

>  <intra_energy>  (13) 
38.68944139203142

>  <rmsd>  (13) 
3.06184

>  <sdf_rank>  (13) 
0

$$$$

     RDKit          3D

 45 47  0  0  0  0  0  0  0  0999 V2000
  -41.8686   44.4984   20.9306 C   0  0  0  0  0  0  0  0  0  0  0  0
  -42.6202   42.6865   22.3600 N   0  0  0  0  0  0  0  0  0  0  0  0
  -41.7594   45.1121   19.8831 O   0  0  0  0  0  0  0  0  0  0  0  0
  -40.2133   46.1005   22.1526 S   0  0  1  0  0  0  0  0  0  0  0  0
  -38.8485   41.2949   31.1724 N   0  0  0  0  0  0  0  0  0  0  0  0
  -39.3296   42.5373   31.2579 C   0  0  0  0  0  0  0  0  0  0  0  0
  -39.7986   43.3211   30.2959 N   0  0  0  0  0  0  0  0  0  0  0  0
  -39.7419   42.6967   29.1124 C   0  0  0  0  0  0  0  0  0  0  0  0
  -39.2744   41.4275   28.8639 C   0  0  0  0  0  0  0  0  0  0  0  0
  -38.8006   40.6931   29.9629 C   0  0  0  0  0  0  0  0  0  0  0  0
  -38.3183   39.4588   29.8796 N   0  0  0  0  0  0  0  0  0  0  0  0
  -39.3790   41.1367   27.5115 N   0  0  0  0  0  0  0  0  0  0  0  0
  -39.8980   42.2184   26.9799 C   0  0  0  0  0  0  0  0  0  0  0  0
  -40.1415   43.1969   27.9065 N   0  0  0  0  0  0  0  0  0  0  0  0
  -42.7675   43.2995   21.0379 C   0  0  0  0  0  0  0  0  0  0  0  0
  -40.6995   44.5204   27.6955 C   0  0  1  0  0  0  0  0  0  0  0  0
  -38.9201   45.6492   21.8173 O   0  0  0  0  0  0  0  0  0  0  0  0
  -39.8645   45.6279   28.3311 C   0  0  2  0  0  0  0  0  0  0  0  0
  -40.6988   46.6136   28.8914 O   0  0  0  0  0  0  0  0  0  0  0  0
  -40.8097   47.1498   21.4252 O   0  0  0  0  0  0  0  0  0  0  0  0
  -39.0544   46.1525   27.1453 C   0  0  2  0  0  0  0  0  0  0  0  0
  -38.6816   47.5103   27.3228 O   0  0  0  0  0  0  0  0  0  0  0  0
  -41.2065   44.8242   22.0323 N   0  0  0  0  0  0  0  0  0  0  0  0
  -40.0543   45.9914   25.9973 C   0  0  2  0  0  0  0  0  0  0  0  0
  -40.7502   44.7628   26.3097 O   0  0  0  0  0  0  0  0  0  0  0  0
  -39.4549   45.8860   24.6172 C   0  0  0  0  0  0  0  0  0  0  0  0
  -40.3377   46.5341   23.6525 O   0  0  0  0  0  0  0  0  0  0  0  0
  -42.7904   43.3951   23.0879 H   0  0  0  0  0  0  0  0  0  0  0  0
  -43.3011   41.9203   22.4609 H   0  0  0  0  0  0  0  0  0  0  0  0
  -41.6656   42.3131   22.4609 H   0  0  0  0  0  0  0  0  0  0  0  0
  -39.3383   42.9722   32.2682 H   0  0  0  0  0  0  0  0  0  0  0  0
  -38.2738   38.9838   28.9668 H   0  0  0  0  0  0  0  0  0  0  0  0
  -37.9888   38.9764   30.7279 H   0  0  0  0  0  0  0  0  0  0  0  0
  -40.1138   42.3274   25.9068 H   0  0  0  0  0  0  0  0  0  0  0  0
  -43.8123   43.6123   20.8946 H   0  0  0  0  0  0  0  0  0  0  0  0
  -42.4907   42.5674   20.2650 H   0  0  0  0  0  0  0  0  0  0  0  0
  -41.6943   44.5354   28.1647 H   0  0  0  0  0  0  0  0  0  0  0  0
  -39.2257   45.2955   29.1626 H   0  0  0  0  0  0  0  0  0  0  0  0
  -40.6544   46.5611   29.8790 H   0  0  0  0  0  0  0  0  0  0  0  0
  -38.1012   45.6260   26.9892 H   0  0  0  0  0  0  0  0  0  0  0  0
  -38.6258   47.7134   28.2902 H   0  0  0  0  0  0  0  0  0  0  0  0
  -41.3309   44.2292   22.8638 H   0  0  0  0  0  0  0  0  0  0  0  0
  -40.6838   46.8917   25.9409 H   0  0  0  0  0  0  0  0  0  0  0  0
  -38.4725   46.3808   24.6053 H   0  0  0  0  0  0  0  0  0  0  0  0
  -39.3347   44.8258   24.3496 H   0  0  0  0  0  0  0  0  0  0  0  0
  1  3  2  0
  1 15  1  0
  1 23  1  0
  2 15  1  0
  4 17  2  0
  4 20  2  0
  4 23  1  0
  4 27  1  1
  5  6  2  0
  5 10  1  0
  6  7  1  0
  7  8  2  0
  8  9  1  0
  8 14  1  0
  9 10  2  0
  9 12  1  0
 10 11  1  0
 12 13  2  0
 13 14  1  0
 16 14  1  0
 16 18  1  0
 16 25  1  0
 18 19  1  0
 18 21  1  0
 21 22  1  0
 21 24  1  0
 24 25  1  0
 24 26  1  0
 26 27  1  0
  2 28  1  0
  2 29  1  0
  2 30  1  0
  6 31  1  0
 11 32  1  0
 11 33  1  0
 13 34  1  0
 15 35  1  0
 15 36  1  0
 16 37  1  1
 18 38  1  1
 19 39  1  0
 21 40  1  6
 22 41  1  0
 23 42  1  0
 24 43  1  6
 26 44  1  0
 26 45  1  0
M  CHG  1   2   1
M  END
>  <filename_input>  (14) 
8SLG_G5A_docked.sdf

>  <pdb_id>  (14) 
8SLG_G5A

>  <pose_rank>  (14) 
13

>  <num_atoms_heavy>  (14) 
27

>  <num_torsions>  (14) 
6

>  <pose>  (14) 
[-40.699522181944545, 44.5203640218768, 27.695492055673746, 0.0616359699572883, 2.2685328614055447, 1.1709177102349042, -0.8123823603451444, -3.5725952727893246, -0.4722136102597091, -3.796539669717601, 3.730739043685397, -3.467685998815661]

>  <energy>  (14) 
-729.5005469498033

>  <inter_energy>  (14) 
-755.3278917045815

>  <intra_energy>  (14) 
27.049226731894976

>  <rmsd>  (14) 
7.48773

>  <sdf_rank>  (14) 
0

$$$$

     RDKit          3D

 45 47  0  0  0  0  0  0  0  0999 V2000
  -42.7226   41.0638   28.2920 C   0  0  0  0  0  0  0  0  0  0  0  0
  -43.6161   38.8770   28.8489 N   0  0  0  0  0  0  0  0  0  0  0  0
  -42.6388   42.2636   28.4907 O   0  0  0  0  0  0  0  0  0  0  0  0
  -40.3428   40.9768   27.2294 S   0  0  1  0  0  0  0  0  0  0  0  0
  -42.6467   44.4560   19.9938 N   0  0  0  0  0  0  0  0  0  0  0  0
  -41.7004   45.3030   20.4057 C   0  0  0  0  0  0  0  0  0  0  0  0
  -41.1191   45.3944   21.5945 N   0  0  0  0  0  0  0  0  0  0  0  0
  -41.6127   44.4718   22.4305 C   0  0  0  0  0  0  0  0  0  0  0  0
  -42.5839   43.5373   22.1572 C   0  0  0  0  0  0  0  0  0  0  0  0
  -43.1276   43.5388   20.8626 C   0  0  0  0  0  0  0  0  0  0  0  0
  -44.0712   42.6998   20.4520 N   0  0  0  0  0  0  0  0  0  0  0  0
  -42.8257   42.7582   23.2792 N   0  0  0  0  0  0  0  0  0  0  0  0
  -42.0098   43.2308   24.1920 C   0  0  0  0  0  0  0  0  0  0  0  0
  -41.2473   44.2704   23.7305 N   0  0  0  0  0  0  0  0  0  0  0  0
  -43.9494   40.2945   28.6918 C   0  0  0  0  0  0  0  0  0  0  0  0
  -40.2472   45.0425   24.4455 C   0  0  1  0  0  0  0  0  0  0  0  0
  -39.3618   40.4870   28.1160 O   0  0  0  0  0  0  0  0  0  0  0  0
  -40.8544   46.0742   25.3915 C   0  0  2  0  0  0  0  0  0  0  0  0
  -40.1051   47.2656   25.3672 O   0  0  0  0  0  0  0  0  0  0  0  0
  -40.2362   40.7296   25.8461 O   0  0  0  0  0  0  0  0  0  0  0  0
  -40.7816   45.3651   26.7441 C   0  0  2  0  0  0  0  0  0  0  0  0
  -40.7121   46.2891   27.8191 O   0  0  0  0  0  0  0  0  0  0  0  0
  -41.7641   40.3588   27.7070 N   0  0  0  0  0  0  0  0  0  0  0  0
  -39.4804   44.5709   26.6028 C   0  0  2  0  0  0  0  0  0  0  0  0
  -39.4730   44.1558   25.2175 O   0  0  0  0  0  0  0  0  0  0  0  0
  -39.3564   43.3550   27.4867 C   0  0  0  0  0  0  0  0  0  0  0  0
  -40.5485   42.5253   27.3430 O   0  0  0  0  0  0  0  0  0  0  0  0
  -43.5618   38.6461   29.8512 H   0  0  0  0  0  0  0  0  0  0  0  0
  -44.3447   38.3015   28.4030 H   0  0  0  0  0  0  0  0  0  0  0  0
  -42.7074   38.6865   28.4030 H   0  0  0  0  0  0  0  0  0  0  0  0
  -41.3541   46.0269   19.6533 H   0  0  0  0  0  0  0  0  0  0  0  0
  -44.4501   41.9940   21.0995 H   0  0  0  0  0  0  0  0  0  0  0  0
  -44.4244   42.7548   19.4860 H   0  0  0  0  0  0  0  0  0  0  0  0
  -41.9455   42.8350   25.2163 H   0  0  0  0  0  0  0  0  0  0  0  0
  -44.3325   40.6875   29.6451 H   0  0  0  0  0  0  0  0  0  0  0  0
  -44.7169   40.4031   27.9113 H   0  0  0  0  0  0  0  0  0  0  0  0
  -39.6510   45.5819   23.6948 H   0  0  0  0  0  0  0  0  0  0  0  0
  -41.8783   46.3815   25.1325 H   0  0  0  0  0  0  0  0  0  0  0  0
  -39.9209   47.5586   26.2947 H   0  0  0  0  0  0  0  0  0  0  0  0
  -41.6632   44.7478   26.9715 H   0  0  0  0  0  0  0  0  0  0  0  0
  -40.7489   45.7989   28.6784 H   0  0  0  0  0  0  0  0  0  0  0  0
  -41.9327   39.3556   27.5457 H   0  0  0  0  0  0  0  0  0  0  0  0
  -38.6372   45.2060   26.9119 H   0  0  0  0  0  0  0  0  0  0  0  0
  -38.4689   42.7760   27.1914 H   0  0  0  0  0  0  0  0  0  0  0  0
  -39.2549   43.6726   28.5350 H   0  0  0  0  0  0  0  0  0  0  0  0
  1  3  2  0
  1 15  1  0
  1 23  1  0
  2 15  1  0
  4 17  2  0
  4 20  2  0
  4 23  1  0
  4 27  1  6
  5  6  2  0
  5 10  1  0
  6  7  1  0
  7  8  2  0
  8  9  1  0
  8 14  1  0
  9 10  2  0
  9 12  1  0
 10 11  1  0
 12 13  2  0
 13 14  1  0
 16 14  1  0
 16 18  1  0
 16 25  1  0
 18 19  1  0
 18 21  1  0
 21 22  1  0
 21 24  1  0
 24 25  1  0
 24 26  1  0
 26 27  1  0
  2 28  1  0
  2 29  1  0
  2 30  1  0
  6 31  1  0
 11 32  1  0
 11 33  1  0
 13 34  1  0
 15 35  1  0
 15 36  1  0
 16 37  1  6
 18 38  1  6
 19 39  1  0
 21 40  1  1
 22 41  1  0
 23 42  1  0
 24 43  1  6
 26 44  1  0
 26 45  1  0
M  CHG  1   2   1
M  END
>  <filename_input>  (15) 
8SLG_G5A_docked.sdf

>  <pdb_id>  (15) 
8SLG_G5A

>  <pose_rank>  (15) 
14

>  <num_atoms_heavy>  (15) 
27

>  <num_torsions>  (15) 
6

>  <pose>  (15) 
[-40.247231966876285, 45.04253878271883, 24.445540006056518, 3.7062704549307557, -4.13397308553132, 2.8179827593132174, -12.462536682127752, 18.704623544846516, -1.6139719158884855, -2.57966897838004, 0.9280725264400412, -2.9882752432977338]

>  <energy>  (15) 
-691.4551401318924

>  <inter_energy>  (15) 
-722.8330840692225

>  <intra_energy>  (15) 
32.58642304596422

>  <rmsd>  (15) 
2.50236

>  <sdf_rank>  (15) 
0

$$$$

     RDKit          3D

 45 47  0  0  0  0  0  0  0  0999 V2000
  -38.8122   43.4907   27.8411 C   0  0  0  0  0  0  0  0  0  0  0  0
  -39.0128   45.8544   27.3281 N   0  0  0  0  0  0  0  0  0  0  0  0
  -38.1745   42.4518   27.8261 O   0  0  0  0  0  0  0  0  0  0  0  0
  -40.1244   42.7661   29.9748 S   0  0  1  0  0  0  0  0  0  0  0  0
  -40.9412   45.8729   22.6765 N   0  0  0  0  0  0  0  0  0  0  0  0
  -40.9415   45.9970   24.0058 C   0  0  0  0  0  0  0  0  0  0  0  0
  -41.7323   45.4187   24.9001 N   0  0  0  0  0  0  0  0  0  0  0  0
  -42.6201   44.6195   24.2943 C   0  0  0  0  0  0  0  0  0  0  0  0
  -42.7463   44.3902   22.9443 C   0  0  0  0  0  0  0  0  0  0  0  0
  -41.8525   45.0616   22.0946 C   0  0  0  0  0  0  0  0  0  0  0  0
  -41.8528   44.9424   20.7722 N   0  0  0  0  0  0  0  0  0  0  0  0
  -43.7830   43.4997   22.7063 N   0  0  0  0  0  0  0  0  0  0  0  0
  -44.2543   43.2150   23.8975 C   0  0  0  0  0  0  0  0  0  0  0  0
  -43.5837   43.8647   24.8992 N   0  0  0  0  0  0  0  0  0  0  0  0
  -38.5878   44.5543   26.8043 C   0  0  0  0  0  0  0  0  0  0  0  0
  -43.8208   43.8046   26.3302 C   0  0  1  0  0  0  0  0  0  0  0  0
  -38.9099   42.3378   30.5493 O   0  0  0  0  0  0  0  0  0  0  0  0
  -44.7518   42.6649   26.7331 C   0  0  2  0  0  0  0  0  0  0  0  0
  -45.6201   43.0785   27.7609 O   0  0  0  0  0  0  0  0  0  0  0  0
  -41.0810   43.4415   30.7589 O   0  0  0  0  0  0  0  0  0  0  0  0
  -43.7720   41.5855   27.1942 C   0  0  2  0  0  0  0  0  0  0  0  0
  -44.3617   40.7113   28.1440 O   0  0  0  0  0  0  0  0  0  0  0  0
  -39.7449   43.7539   28.7459 N   0  0  0  0  0  0  0  0  0  0  0  0
  -42.6613   42.4303   27.8239 C   0  0  2  0  0  0  0  0  0  0  0  0
  -42.5863   43.5982   26.9745 O   0  0  0  0  0  0  0  0  0  0  0  0
  -41.3030   41.7784   27.8939 C   0  0  0  0  0  0  0  0  0  0  0  0
  -40.9190   41.6026   29.2910 O   0  0  0  0  0  0  0  0  0  0  0  0
  -39.0045   45.8291   28.3577 H   0  0  0  0  0  0  0  0  0  0  0  0
  -38.3671   46.5856   26.9974 H   0  0  0  0  0  0  0  0  0  0  0  0
  -39.9658   46.0629   26.9974 H   0  0  0  0  0  0  0  0  0  0  0  0
  -40.1786   46.6743   24.4174 H   0  0  0  0  0  0  0  0  0  0  0  0
  -42.5395   44.3290   20.3105 H   0  0  0  0  0  0  0  0  0  0  0  0
  -41.1663   45.4633   20.2080 H   0  0  0  0  0  0  0  0  0  0  0  0
  -45.0964   42.5292   24.0723 H   0  0  0  0  0  0  0  0  0  0  0  0
  -37.5187   44.5954   26.5485 H   0  0  0  0  0  0  0  0  0  0  0  0
  -39.1748   44.3152   25.9052 H   0  0  0  0  0  0  0  0  0  0  0  0
  -44.2985   44.7510   26.6234 H   0  0  0  0  0  0  0  0  0  0  0  0
  -45.4157   42.3144   25.9292 H   0  0  0  0  0  0  0  0  0  0  0  0
  -45.2084   42.8824   28.6396 H   0  0  0  0  0  0  0  0  0  0  0  0
  -43.4295   40.9208   26.3875 H   0  0  0  0  0  0  0  0  0  0  0  0
  -44.1495   41.0260   29.0584 H   0  0  0  0  0  0  0  0  0  0  0  0
  -40.2608   44.6415   28.6631 H   0  0  0  0  0  0  0  0  0  0  0  0
  -42.9124   42.6253   28.8770 H   0  0  0  0  0  0  0  0  0  0  0  0
  -41.3411   40.7973   27.3979 H   0  0  0  0  0  0  0  0  0  0  0  0
  -40.5635   42.4165   27.3879 H   0  0  0  0  0  0  0  0  0  0  0  0
  1  3  2  0
  1 15  1  0
  1 23  1  0
  2 15  1  0
  4 17  2  0
  4 20  2  0
  4 23  1  0
  4 27  1  6
  5  6  2  0
  5 10  1  0
  6  7  1  0
  7  8  2  0
  8  9  1  0
  8 14  1  0
  9 10  2  0
  9 12  1  0
 10 11  1  0
 12 13  2  0
 13 14  1  0
 16 14  1  0
 16 18  1  0
 16 25  1  0
 18 19  1  0
 18 21  1  0
 21 22  1  0
 21 24  1  0
 24 25  1  0
 24 26  1  0
 26 27  1  0
  2 28  1  0
  2 29  1  0
  2 30  1  0
  6 31  1  0
 11 32  1  0
 11 33  1  0
 13 34  1  0
 15 35  1  0
 15 36  1  0
 16 37  1  1
 18 38  1  6
 19 39  1  0
 21 40  1  6
 22 41  1  0
 23 42  1  0
 24 43  1  1
 26 44  1  0
 26 45  1  0
M  CHG  1   2   1
M  END
>  <filename_input>  (16) 
8SLG_G5A_docked.sdf

>  <pdb_id>  (16) 
8SLG_G5A

>  <pose_rank>  (16) 
15

>  <num_atoms_heavy>  (16) 
27

>  <num_torsions>  (16) 
6

>  <pose>  (16) 
[-43.820812023603295, 43.80457430443814, 26.330218007566923, 0.9749935222065792, -0.4376527177600129, 1.2177730170208914, 7.959183121637821, 3.222623359988366, -5.577916667020836, -5.491647718386315, -0.15973854834743922, -2.966676002405579]

>  <energy>  (16) 
-507.398378361033

>  <inter_energy>  (16) 
-542.8849943271134

>  <intra_energy>  (16) 
50.3523869049728

>  <rmsd>  (16) 
4.12883

>  <sdf_rank>  (16) 
0

$$$$

     RDKit          3D

 45 47  0  0  0  0  0  0  0  0999 V2000
  -41.4833   44.8085   22.1665 C   0  0  0  0  0  0  0  0  0  0  0  0
  -43.2776   44.0968   20.6952 N   0  0  0  0  0  0  0  0  0  0  0  0
  -41.1674   45.5911   21.2869 O   0  0  0  0  0  0  0  0  0  0  0  0
  -39.6591   45.7389   23.7811 S   0  0  1  0  0  0  0  0  0  0  0  0
  -45.4326   43.6570   24.8177 N   0  0  0  0  0  0  0  0  0  0  0  0
  -44.2911   44.3358   24.9540 C   0  0  0  0  0  0  0  0  0  0  0  0
  -43.3591   44.2260   25.8916 N   0  0  0  0  0  0  0  0  0  0  0  0
  -43.6954   43.2813   26.7794 C   0  0  0  0  0  0  0  0  0  0  0  0
  -44.8297   42.5038   26.7760 C   0  0  0  0  0  0  0  0  0  0  0  0
  -45.7459   42.7125   25.7326 C   0  0  0  0  0  0  0  0  0  0  0  0
  -46.8834   42.0411   25.5971 N   0  0  0  0  0  0  0  0  0  0  0  0
  -44.8189   41.6393   27.8609 N   0  0  0  0  0  0  0  0  0  0  0  0
  -43.6976   41.9087   28.4872 C   0  0  0  0  0  0  0  0  0  0  0  0
  -42.9742   42.8957   27.8727 N   0  0  0  0  0  0  0  0  0  0  0  0
  -42.6039   43.8280   21.9677 C   0  0  0  0  0  0  0  0  0  0  0  0
  -41.6981   43.4608   28.2723 C   0  0  1  0  0  0  0  0  0  0  0  0
  -38.7219   45.7398   22.7276 O   0  0  0  0  0  0  0  0  0  0  0  0
  -40.6925   42.4047   28.7210 C   0  0  2  0  0  0  0  0  0  0  0  0
  -39.9487   42.8695   29.8220 O   0  0  0  0  0  0  0  0  0  0  0  0
  -40.2533   46.9449   24.2035 O   0  0  0  0  0  0  0  0  0  0  0  0
  -39.8318   42.2163   27.4714 C   0  0  2  0  0  0  0  0  0  0  0  0
  -38.5226   41.7755   27.7963 O   0  0  0  0  0  0  0  0  0  0  0  0
  -40.8675   44.7516   23.3394 N   0  0  0  0  0  0  0  0  0  0  0  0
  -39.8186   43.6339   26.8933 C   0  0  2  0  0  0  0  0  0  0  0  0
  -41.1474   44.1350   27.1660 O   0  0  0  0  0  0  0  0  0  0  0  0
  -39.5432   43.7348   25.4138 C   0  0  0  0  0  0  0  0  0  0  0  0
  -39.1018   45.0884   25.0923 O   0  0  0  0  0  0  0  0  0  0  0  0
  -44.2191   44.4725   20.8779 H   0  0  0  0  0  0  0  0  0  0  0  0
  -42.7321   44.7846   20.1565 H   0  0  0  0  0  0  0  0  0  0  0  0
  -43.3554   43.2224   20.1565 H   0  0  0  0  0  0  0  0  0  0  0  0
  -44.0959   45.0925   24.1799 H   0  0  0  0  0  0  0  0  0  0  0  0
  -47.1393   41.3176   26.2841 H   0  0  0  0  0  0  0  0  0  0  0  0
  -47.5098   42.2438   24.8050 H   0  0  0  0  0  0  0  0  0  0  0  0
  -43.3740   41.3972   29.4057 H   0  0  0  0  0  0  0  0  0  0  0  0
  -42.1973   42.8059   21.9570 H   0  0  0  0  0  0  0  0  0  0  0  0
  -43.3267   43.9304   22.7904 H   0  0  0  0  0  0  0  0  0  0  0  0
  -41.8883   44.1301   29.1244 H   0  0  0  0  0  0  0  0  0  0  0  0
  -41.1451   41.4633   29.0656 H   0  0  0  0  0  0  0  0  0  0  0  0
  -40.3934   42.5916   30.6617 H   0  0  0  0  0  0  0  0  0  0  0  0
  -40.2133   41.4515   26.7790 H   0  0  0  0  0  0  0  0  0  0  0  0
  -38.4207   41.7412   28.7805 H   0  0  0  0  0  0  0  0  0  0  0  0
  -41.1759   44.0353   24.0122 H   0  0  0  0  0  0  0  0  0  0  0  0
  -38.9948   44.2005   27.3519 H   0  0  0  0  0  0  0  0  0  0  0  0
  -38.7565   43.0173   25.1375 H   0  0  0  0  0  0  0  0  0  0  0  0
  -40.4616   43.5059   24.8534 H   0  0  0  0  0  0  0  0  0  0  0  0
  1  3  2  0
  1 15  1  0
  1 23  1  0
  2 15  1  0
  4 17  2  0
  4 20  2  0
  4 23  1  0
  4 27  1  1
  5  6  2  0
  5 10  1  0
  6  7  1  0
  7  8  2  0
  8  9  1  0
  8 14  1  0
  9 10  2  0
  9 12  1  0
 10 11  1  0
 12 13  2  0
 13 14  1  0
 16 14  1  0
 16 18  1  0
 16 25  1  0
 18 19  1  0
 18 21  1  0
 21 22  1  0
 21 24  1  0
 24 25  1  0
 24 26  1  0
 26 27  1  0
  2 28  1  0
  2 29  1  0
  2 30  1  0
  6 31  1  0
 11 32  1  0
 11 33  1  0
 13 34  1  0
 15 35  1  0
 15 36  1  0
 16 37  1  1
 18 38  1  1
 19 39  1  0
 21 40  1  6
 22 41  1  0
 23 42  1  0
 24 43  1  1
 26 44  1  0
 26 45  1  0
M  CHG  1   2   1
M  END
>  <filename_input>  (17) 
8SLG_G5A_docked.sdf

>  <pdb_id>  (17) 
8SLG_G5A

>  <pose_rank>  (17) 
16

>  <num_atoms_heavy>  (17) 
27

>  <num_torsions>  (17) 
6

>  <pose>  (17) 
[-41.698075862274536, 43.4608430451487, 28.27233296776438, -3.0624141415962343, -2.1554528088765275, -1.4448586181010181, -10.361514358215373, -16.399135780744835, 12.420856269931356, -5.103923963431747, -8.103231924967707, -6.635808328096459]

>  <energy>  (17) 
-561.4699713573964

>  <inter_energy>  (17) 
-591.163262646096

>  <intra_energy>  (17) 
39.58391335487972

>  <rmsd>  (17) 
6.2603

>  <sdf_rank>  (17) 
0

$$$$

     RDKit          3D

 45 47  0  0  0  0  0  0  0  0999 V2000
  -39.1487   40.8448   28.9363 C   0  0  0  0  0  0  0  0  0  0  0  0
  -37.8167   39.3021   30.2540 N   0  0  0  0  0  0  0  0  0  0  0  0
  -39.9961   41.0381   29.7910 O   0  0  0  0  0  0  0  0  0  0  0  0
  -39.6079   43.1574   27.8223 S   0  0  1  0  0  0  0  0  0  0  0  0
  -47.9299   43.5203   24.5417 N   0  0  0  0  0  0  0  0  0  0  0  0
  -47.2004   43.5329   23.4236 C   0  0  0  0  0  0  0  0  0  0  0  0
  -45.8816   43.4985   23.2845 N   0  0  0  0  0  0  0  0  0  0  0  0
  -45.2846   43.4452   24.4822 C   0  0  0  0  0  0  0  0  0  0  0  0
  -45.8943   43.4277   25.7147 C   0  0  0  0  0  0  0  0  0  0  0  0
  -47.2976   43.4702   25.7354 C   0  0  0  0  0  0  0  0  0  0  0  0
  -48.0250   43.4615   26.8462 N   0  0  0  0  0  0  0  0  0  0  0  0
  -44.9390   43.3691   26.7189 N   0  0  0  0  0  0  0  0  0  0  0  0
  -43.7912   43.3536   26.0830 C   0  0  0  0  0  0  0  0  0  0  0  0
  -43.9415   43.3951   24.7225 N   0  0  0  0  0  0  0  0  0  0  0  0
  -38.3424   39.5775   28.9150 C   0  0  0  0  0  0  0  0  0  0  0  0
  -42.9102   43.3993   23.7007 C   0  0  1  0  0  0  0  0  0  0  0  0
  -40.4302   43.3240   28.9557 O   0  0  0  0  0  0  0  0  0  0  0  0
  -42.4282   44.8027   23.3457 C   0  0  2  0  0  0  0  0  0  0  0  0
  -42.1989   44.9089   21.9609 O   0  0  0  0  0  0  0  0  0  0  0  0
  -38.5926   44.0927   27.5386 O   0  0  0  0  0  0  0  0  0  0  0  0
  -41.1418   44.9265   24.1627 C   0  0  2  0  0  0  0  0  0  0  0  0
  -40.2282   45.8366   23.5701 O   0  0  0  0  0  0  0  0  0  0  0  0
  -38.8857   41.7128   27.9691 N   0  0  0  0  0  0  0  0  0  0  0  0
  -40.6119   43.4910   24.1171 C   0  0  2  0  0  0  0  0  0  0  0  0
  -41.8044   42.6759   24.1859 O   0  0  0  0  0  0  0  0  0  0  0  0
  -39.6786   43.1019   25.2364 C   0  0  0  0  0  0  0  0  0  0  0  0
  -40.4228   43.0373   26.4902 O   0  0  0  0  0  0  0  0  0  0  0  0
  -38.4799   39.6495   30.9614 H   0  0  0  0  0  0  0  0  0  0  0  0
  -37.6904   38.2866   30.3712 H   0  0  0  0  0  0  0  0  0  0  0  0
  -36.9100   39.7766   30.3712 H   0  0  0  0  0  0  0  0  0  0  0  0
  -47.7735   43.5781   22.4858 H   0  0  0  0  0  0  0  0  0  0  0  0
  -47.5613   43.4236   27.7652 H   0  0  0  0  0  0  0  0  0  0  0  0
  -49.0530   43.4925   26.7889 H   0  0  0  0  0  0  0  0  0  0  0  0
  -42.8148   43.3118   26.5877 H   0  0  0  0  0  0  0  0  0  0  0  0
  -38.9829   38.7424   28.5952 H   0  0  0  0  0  0  0  0  0  0  0  0
  -37.5042   39.6917   28.2118 H   0  0  0  0  0  0  0  0  0  0  0  0
  -43.3445   42.9518   22.7946 H   0  0  0  0  0  0  0  0  0  0  0  0
  -43.1490   45.6020   23.5727 H   0  0  0  0  0  0  0  0  0  0  0  0
  -41.3119   45.3197   21.8039 H   0  0  0  0  0  0  0  0  0  0  0  0
  -41.2956   45.3175   25.1793 H   0  0  0  0  0  0  0  0  0  0  0  0
  -39.7396   46.3233   24.2804 H   0  0  0  0  0  0  0  0  0  0  0  0
  -38.1783   41.4533   27.2669 H   0  0  0  0  0  0  0  0  0  0  0  0
  -40.0014   43.3626   23.2111 H   0  0  0  0  0  0  0  0  0  0  0  0
  -39.2376   42.1176   25.0206 H   0  0  0  0  0  0  0  0  0  0  0  0
  -38.8780   43.8513   25.3234 H   0  0  0  0  0  0  0  0  0  0  0  0
  1  3  2  0
  1 15  1  0
  1 23  1  0
  2 15  1  0
  4 17  2  0
  4 20  2  0
  4 23  1  0
  4 27  1  6
  5  6  2  0
  5 10  1  0
  6  7  1  0
  7  8  2  0
  8  9  1  0
  8 14  1  0
  9 10  2  0
  9 12  1  0
 10 11  1  0
 12 13  2  0
 13 14  1  0
 16 14  1  0
 16 18  1  0
 16 25  1  0
 18 19  1  0
 18 21  1  0
 21 22  1  0
 21 24  1  0
 24 25  1  0
 24 26  1  0
 26 27  1  0
  2 28  1  0
  2 29  1  0
  2 30  1  0
  6 31  1  0
 11 32  1  0
 11 33  1  0
 13 34  1  0
 15 35  1  0
 15 36  1  0
 16 37  1  6
 18 38  1  1
 19 39  1  0
 21 40  1  1
 22 41  1  0
 23 42  1  0
 24 43  1  6
 26 44  1  0
 26 45  1  0
M  CHG  1   2   1
M  END
>  <filename_input>  (18) 
8SLG_G5A_docked.sdf

>  <pdb_id>  (18) 
8SLG_G5A

>  <pose_rank>  (18) 
17

>  <num_atoms_heavy>  (18) 
27

>  <num_torsions>  (18) 
6

>  <pose>  (18) 
[-42.91017863779519, 43.39933703448749, 23.700708950228915, 2.999969023752175, -3.347989402133214, 1.5603634289794281, -0.09437395198376193, 6.451870832201922, 18.357529871231858, -0.34780926298205206, 5.415627749071325, -1.0804013058587099]

>  <energy>  (18) 
-548.0765135554916

>  <inter_energy>  (18) 
-577.5145890513315

>  <intra_energy>  (18) 
27.905275770160966

>  <rmsd>  (18) 
4.33461

>  <sdf_rank>  (18) 
0

$$$$

     RDKit          3D

 45 47  0  0  0  0  0  0  0  0999 V2000
  -44.9455   43.9280   22.9269 C   0  0  0  0  0  0  0  0  0  0  0  0
  -47.1638   43.4549   22.0633 N   0  0  0  0  0  0  0  0  0  0  0  0
  -44.4132   42.9616   23.4452 O   0  0  0  0  0  0  0  0  0  0  0  0
  -42.6972   44.7193   21.8690 S   0  0  1  0  0  0  0  0  0  0  0  0
  -38.5579   41.2673   30.8698 N   0  0  0  0  0  0  0  0  0  0  0  0
  -39.3063   42.3683   30.9696 C   0  0  0  0  0  0  0  0  0  0  0  0
  -39.6911   43.2077   30.0172 N   0  0  0  0  0  0  0  0  0  0  0  0
  -39.2162   42.8170   28.8274 C   0  0  0  0  0  0  0  0  0  0  0  0
  -38.4356   41.7157   28.5650 C   0  0  0  0  0  0  0  0  0  0  0  0
  -38.0900   40.9015   29.6555 C   0  0  0  0  0  0  0  0  0  0  0  0
  -37.3428   39.8082   29.5592 N   0  0  0  0  0  0  0  0  0  0  0  0
  -38.1459   41.6479   27.2101 N   0  0  0  0  0  0  0  0  0  0  0  0
  -38.7467   42.6927   26.6908 C   0  0  0  0  0  0  0  0  0  0  0  0
  -39.4145   43.4364   27.6269 N   0  0  0  0  0  0  0  0  0  0  0  0
  -46.4166   44.1845   23.0903 C   0  0  0  0  0  0  0  0  0  0  0  0
  -40.1823   44.6530   27.4322 C   0  0  1  0  0  0  0  0  0  0  0  0
  -42.4083   43.3570   21.6469 O   0  0  0  0  0  0  0  0  0  0  0  0
  -39.4001   45.7418   26.7038 C   0  0  2  0  0  0  0  0  0  0  0  0
  -39.6880   47.0057   27.2527 O   0  0  0  0  0  0  0  0  0  0  0  0
  -42.4330   45.6734   20.8662 O   0  0  0  0  0  0  0  0  0  0  0  0
  -39.8995   45.6012   25.2656 C   0  0  2  0  0  0  0  0  0  0  0  0
  -39.8012   46.8246   24.5530 O   0  0  0  0  0  0  0  0  0  0  0  0
  -44.2807   44.8191   22.2044 N   0  0  0  0  0  0  0  0  0  0  0  0
  -41.3595   45.1977   25.4876 C   0  0  2  0  0  0  0  0  0  0  0  0
  -41.3125   44.3423   26.6526 O   0  0  0  0  0  0  0  0  0  0  0  0
  -42.0130   44.4531   24.3502 C   0  0  0  0  0  0  0  0  0  0  0  0
  -42.0039   45.2880   23.1531 O   0  0  0  0  0  0  0  0  0  0  0  0
  -47.8262   42.8082   22.5149 H   0  0  0  0  0  0  0  0  0  0  0  0
  -47.6829   44.1235   21.4764 H   0  0  0  0  0  0  0  0  0  0  0  0
  -46.5079   42.9200   21.4764 H   0  0  0  0  0  0  0  0  0  0  0  0
  -39.6527   42.6140   31.9843 H   0  0  0  0  0  0  0  0  0  0  0  0
  -36.9772   39.5134   28.6425 H   0  0  0  0  0  0  0  0  0  0  0  0
  -37.1288   39.2548   30.4011 H   0  0  0  0  0  0  0  0  0  0  0  0
  -38.7172   42.9436   25.6202 H   0  0  0  0  0  0  0  0  0  0  0  0
  -46.7382   43.8454   24.0861 H   0  0  0  0  0  0  0  0  0  0  0  0
  -46.6116   45.2619   22.9851 H   0  0  0  0  0  0  0  0  0  0  0  0
  -40.4474   45.0363   28.4286 H   0  0  0  0  0  0  0  0  0  0  0  0
  -38.3070   45.6451   26.7807 H   0  0  0  0  0  0  0  0  0  0  0  0
  -39.6746   46.9472   28.2408 H   0  0  0  0  0  0  0  0  0  0  0  0
  -39.3219   44.8863   24.6613 H   0  0  0  0  0  0  0  0  0  0  0  0
  -39.7408   47.5762   25.1945 H   0  0  0  0  0  0  0  0  0  0  0  0
  -44.8028   45.6255   21.8328 H   0  0  0  0  0  0  0  0  0  0  0  0
  -41.9710   46.1063   25.5909 H   0  0  0  0  0  0  0  0  0  0  0  0
  -41.4581   43.5239   24.1534 H   0  0  0  0  0  0  0  0  0  0  0  0
  -43.0514   44.2100   24.6197 H   0  0  0  0  0  0  0  0  0  0  0  0
  1  3  2  0
  1 15  1  0
  1 23  1  0
  2 15  1  0
  4 17  2  0
  4 20  2  0
  4 23  1  0
  4 27  1  1
  5  6  2  0
  5 10  1  0
  6  7  1  0
  7  8  2  0
  8  9  1  0
  8 14  1  0
  9 10  2  0
  9 12  1  0
 10 11  1  0
 12 13  2  0
 13 14  1  0
 16 14  1  0
 16 18  1  0
 16 25  1  0
 18 19  1  0
 18 21  1  0
 21 22  1  0
 21 24  1  0
 24 25  1  0
 24 26  1  0
 26 27  1  0
  2 28  1  0
  2 29  1  0
  2 30  1  0
  6 31  1  0
 11 32  1  0
 11 33  1  0
 13 34  1  0
 15 35  1  0
 15 36  1  0
 16 37  1  1
 18 38  1  6
 19 39  1  0
 21 40  1  6
 22 41  1  0
 23 42  1  0
 24 43  1  1
 26 44  1  0
 26 45  1  0
M  CHG  1   2   1
M  END
>  <filename_input>  (19) 
8SLG_G5A_docked.sdf

>  <pdb_id>  (19) 
8SLG_G5A

>  <pose_rank>  (19) 
18

>  <num_atoms_heavy>  (19) 
27

>  <num_torsions>  (19) 
6

>  <pose>  (19) 
[-40.18230668085218, 44.653015939280266, 27.432197448308322, -0.4246347441235459, -2.831998655947959, -0.5436755796951277, 0.5215663252856957, -2.0876857208093114, -0.8166021638097689, 2.237771529110144, -0.29714033279603524, -1.7485538388810682]

>  <energy>  (19) 
-545.2941141382971

>  <inter_energy>  (19) 
-589.0810309853891

>  <intra_energy>  (19) 
41.36440517295708

>  <rmsd>  (19) 
7.62829

>  <sdf_rank>  (19) 
0

$$$$

     RDKit          3D

 45 47  0  0  0  0  0  0  0  0999 V2000
  -41.6047   45.1681   22.3392 C   0  0  0  0  0  0  0  0  0  0  0  0
  -39.6559   45.1773   23.7859 N   0  0  0  0  0  0  0  0  0  0  0  0
  -41.6235   45.1412   21.1207 O   0  0  0  0  0  0  0  0  0  0  0  0
  -43.5602   43.4508   22.5026 S   0  0  1  0  0  0  0  0  0  0  0  0
  -39.7875   41.8993   29.2357 N   0  0  0  0  0  0  0  0  0  0  0  0
  -40.9455   41.2535   29.3914 C   0  0  0  0  0  0  0  0  0  0  0  0
  -42.1168   41.4845   28.8132 N   0  0  0  0  0  0  0  0  0  0  0  0
  -42.0295   42.5263   27.9760 C   0  0  0  0  0  0  0  0  0  0  0  0
  -40.9161   43.2888   27.7113 C   0  0  0  0  0  0  0  0  0  0  0  0
  -39.7326   42.9495   28.3864 C   0  0  0  0  0  0  0  0  0  0  0  0
  -38.5807   43.5926   28.2358 N   0  0  0  0  0  0  0  0  0  0  0  0
  -41.2231   44.2772   26.7876 N   0  0  0  0  0  0  0  0  0  0  0  0
  -42.4946   44.0949   26.5186 C   0  0  0  0  0  0  0  0  0  0  0  0
  -43.0345   43.0433   27.2099 N   0  0  0  0  0  0  0  0  0  0  0  0
  -40.6199   46.0258   23.0817 C   0  0  0  0  0  0  0  0  0  0  0  0
  -44.3986   42.5476   27.1774 C   0  0  1  0  0  0  0  0  0  0  0  0
  -43.7621   43.7978   21.1509 O   0  0  0  0  0  0  0  0  0  0  0  0
  -45.4374   43.6464   27.3804 C   0  0  2  0  0  0  0  0  0  0  0  0
  -46.4978   43.1797   28.1799 O   0  0  0  0  0  0  0  0  0  0  0  0
  -43.1458   42.1486   22.8468 O   0  0  0  0  0  0  0  0  0  0  0  0
  -45.8763   43.9546   25.9486 C   0  0  2  0  0  0  0  0  0  0  0  0
  -47.1989   44.4671   25.9029 O   0  0  0  0  0  0  0  0  0  0  0  0
  -42.4431   44.4683   23.0912 N   0  0  0  0  0  0  0  0  0  0  0  0
  -45.7884   42.5715   25.2980 C   0  0  2  0  0  0  0  0  0  0  0  0
  -44.6282   41.9680   25.9152 O   0  0  0  0  0  0  0  0  0  0  0  0
  -45.6156   42.5628   23.7997 C   0  0  0  0  0  0  0  0  0  0  0  0
  -44.8195   43.7172   23.3950 O   0  0  0  0  0  0  0  0  0  0  0  0
  -39.7804   45.2869   24.8024 H   0  0  0  0  0  0  0  0  0  0  0  0
  -39.8104   44.1928   23.5252 H   0  0  0  0  0  0  0  0  0  0  0  0
  -38.6991   45.4554   23.5252 H   0  0  0  0  0  0  0  0  0  0  0  0
  -40.9256   40.4113   30.0987 H   0  0  0  0  0  0  0  0  0  0  0  0
  -38.5192   44.3952   27.5932 H   0  0  0  0  0  0  0  0  0  0  0  0
  -37.7488   43.2889   28.7616 H   0  0  0  0  0  0  0  0  0  0  0  0
  -43.0645   44.7189   25.8144 H   0  0  0  0  0  0  0  0  0  0  0  0
  -40.0861   46.6705   22.3679 H   0  0  0  0  0  0  0  0  0  0  0  0
  -41.1580   46.6480   23.8120 H   0  0  0  0  0  0  0  0  0  0  0  0
  -44.5048   41.8256   28.0005 H   0  0  0  0  0  0  0  0  0  0  0  0
  -45.0610   44.5366   27.9056 H   0  0  0  0  0  0  0  0  0  0  0  0
  -46.2612   43.2838   29.1356 H   0  0  0  0  0  0  0  0  0  0  0  0
  -45.2679   44.7249   25.4522 H   0  0  0  0  0  0  0  0  0  0  0  0
  -47.5345   44.5971   26.8252 H   0  0  0  0  0  0  0  0  0  0  0  0
  -42.3808   44.5778   24.1135 H   0  0  0  0  0  0  0  0  0  0  0  0
  -46.7389   42.0405   25.4547 H   0  0  0  0  0  0  0  0  0  0  0  0
  -45.1025   41.6387   23.4952 H   0  0  0  0  0  0  0  0  0  0  0  0
  -46.6026   42.6105   23.3164 H   0  0  0  0  0  0  0  0  0  0  0  0
  1  3  2  0
  1 15  1  0
  1 23  1  0
  2 15  1  0
  4 17  2  0
  4 20  2  0
  4 23  1  0
  4 27  1  1
  5  6  2  0
  5 10  1  0
  6  7  1  0
  7  8  2  0
  8  9  1  0
  8 14  1  0
  9 10  2  0
  9 12  1  0
 10 11  1  0
 12 13  2  0
 13 14  1  0
 16 14  1  0
 16 18  1  0
 16 25  1  0
 18 19  1  0
 18 21  1  0
 21 22  1  0
 21 24  1  0
 24 25  1  0
 24 26  1  0
 26 27  1  0
  2 28  1  0
  2 29  1  0
  2 30  1  0
  6 31  1  0
 11 32  1  0
 11 33  1  0
 13 34  1  0
 15 35  1  0
 15 36  1  0
 16 37  1  1
 18 38  1  1
 19 39  1  0
 21 40  1  6
 22 41  1  0
 23 42  1  0
 24 43  1  6
 26 44  1  0
 26 45  1  0
M  CHG  1   2   1
M  END
>  <filename_input>  (20) 
8SLG_G5A_docked.sdf

>  <pdb_id>  (20) 
8SLG_G5A

>  <pose_rank>  (20) 
19

>  <num_atoms_heavy>  (20) 
27

>  <num_torsions>  (20) 
6

>  <pose>  (20) 
[-44.39856866987499, 42.54756811907191, 27.17735062537006, -1.9152218400841323, 2.6381424099108806, 1.3464842659384242, 0.5721348273351113, -0.4536944817264982, -8.068424943775051, -1.4815669814563721, -1.2973666936602162, -2.195006811383837]

>  <energy>  (20) 
-495.68508508056453

>  <inter_energy>  (20) 
-525.0820459509811

>  <intra_energy>  (20) 
29.17193254251682

>  <rmsd>  (20) 
7.46972

>  <sdf_rank>  (20) 
0

$$$$

     RDKit          3D

 45 47  0  0  0  0  0  0  0  0999 V2000
  -44.1083   42.9250   23.1118 C   0  0  0  0  0  0  0  0  0  0  0  0
  -43.6970   43.0515   20.7231 N   0  0  0  0  0  0  0  0  0  0  0  0
  -44.1185   41.7134   22.9784 O   0  0  0  0  0  0  0  0  0  0  0  0
  -44.7632   42.7491   25.6297 S   0  0  1  0  0  0  0  0  0  0  0  0
  -40.7844   44.9816   22.9921 N   0  0  0  0  0  0  0  0  0  0  0  0
  -41.1910   43.8413   23.5548 C   0  0  0  0  0  0  0  0  0  0  0  0
  -40.8932   43.3441   24.7480 N   0  0  0  0  0  0  0  0  0  0  0  0
  -40.0661   44.1668   25.4060 C   0  0  0  0  0  0  0  0  0  0  0  0
  -39.5610   45.3666   24.9628 C   0  0  0  0  0  0  0  0  0  0  0  0
  -39.9462   45.7887   23.6802 C   0  0  0  0  0  0  0  0  0  0  0  0
  -39.5402   46.9206   23.1173 N   0  0  0  0  0  0  0  0  0  0  0  0
  -38.7390   45.9251   25.9306 N   0  0  0  0  0  0  0  0  0  0  0  0
  -38.7634   45.0650   26.9215 C   0  0  0  0  0  0  0  0  0  0  0  0
  -39.5559   43.9797   26.6586 N   0  0  0  0  0  0  0  0  0  0  0  0
  -43.7679   43.8297   21.9619 C   0  0  0  0  0  0  0  0  0  0  0  0
  -39.8215   42.8304   27.5048 C   0  0  1  0  0  0  0  0  0  0  0  0
  -45.6239   43.5884   26.3669 O   0  0  0  0  0  0  0  0  0  0  0  0
  -39.9368   43.1918   28.9826 C   0  0  2  0  0  0  0  0  0  0  0  0
  -39.3320   42.2021   29.7802 O   0  0  0  0  0  0  0  0  0  0  0  0
  -45.1772   41.4523   25.2654 O   0  0  0  0  0  0  0  0  0  0  0  0
  -41.4502   43.2641   29.1877 C   0  0  2  0  0  0  0  0  0  0  0  0
  -41.8124   42.9874   30.5317 O   0  0  0  0  0  0  0  0  0  0  0  0
  -44.4041   43.5294   24.2542 N   0  0  0  0  0  0  0  0  0  0  0  0
  -41.9396   42.1675   28.2382 C   0  0  2  0  0  0  0  0  0  0  0  0
  -41.0455   42.2611   27.1056 O   0  0  0  0  0  0  0  0  0  0  0  0
  -43.3637   42.3034   27.7599 C   0  0  0  0  0  0  0  0  0  0  0  0
  -43.3725   42.5443   26.3205 O   0  0  0  0  0  0  0  0  0  0  0  0
  -43.6059   42.0511   20.9509 H   0  0  0  0  0  0  0  0  0  0  0  0
  -44.5552   43.2017   20.1737 H   0  0  0  0  0  0  0  0  0  0  0  0
  -42.8801   43.3543   20.1737 H   0  0  0  0  0  0  0  0  0  0  0  0
  -41.8683   43.2275   22.9427 H   0  0  0  0  0  0  0  0  0  0  0  0
  -38.9015   47.5486   23.6259 H   0  0  0  0  0  0  0  0  0  0  0  0
  -39.8639   47.1707   22.1720 H   0  0  0  0  0  0  0  0  0  0  0  0
  -38.2077   45.2012   27.8611 H   0  0  0  0  0  0  0  0  0  0  0  0
  -44.5440   44.6031   21.8635 H   0  0  0  0  0  0  0  0  0  0  0  0
  -42.7935   44.3046   22.1491 H   0  0  0  0  0  0  0  0  0  0  0  0
  -38.9749   42.1371   27.3914 H   0  0  0  0  0  0  0  0  0  0  0  0
  -39.4294   44.1267   29.2630 H   0  0  0  0  0  0  0  0  0  0  0  0
  -39.4660   42.4213   30.7362 H   0  0  0  0  0  0  0  0  0  0  0  0
  -41.8798   44.2569   28.9882 H   0  0  0  0  0  0  0  0  0  0  0  0
  -41.1942   43.4597   31.1440 H   0  0  0  0  0  0  0  0  0  0  0  0
  -44.4059   44.5593   24.2690 H   0  0  0  0  0  0  0  0  0  0  0  0
  -41.9329   41.2041   28.7692 H   0  0  0  0  0  0  0  0  0  0  0  0
  -43.9144   41.3769   27.9800 H   0  0  0  0  0  0  0  0  0  0  0  0
  -43.8448   43.1473   28.2759 H   0  0  0  0  0  0  0  0  0  0  0  0
  1  3  2  0
  1 15  1  0
  1 23  1  0
  2 15  1  0
  4 17  2  0
  4 20  2  0
  4 23  1  0
  4 27  1  1
  5  6  2  0
  5 10  1  0
  6  7  1  0
  7  8  2  0
  8  9  1  0
  8 14  1  0
  9 10  2  0
  9 12  1  0
 10 11  1  0
 12 13  2  0
 13 14  1  0
 16 14  1  0
 16 18  1  0
 16 25  1  0
 18 19  1  0
 18 21  1  0
 21 22  1  0
 21 24  1  0
 24 25  1  0
 24 26  1  0
 26 27  1  0
  2 28  1  0
  2 29  1  0
  2 30  1  0
  6 31  1  0
 11 32  1  0
 11 33  1  0
 13 34  1  0
 15 35  1  0
 15 36  1  0
 16 37  1  1
 18 38  1  6
 19 39  1  0
 21 40  1  6
 22 41  1  0
 23 42  1  0
 24 43  1  1
 26 44  1  0
 26 45  1  0
M  CHG  1   2   1
M  END
>  <filename_input>  (21) 
8SLG_G5A_docked.sdf

>  <pdb_id>  (21) 
8SLG_G5A

>  <pose_rank>  (21) 
20

>  <num_atoms_heavy>  (21) 
27

>  <num_torsions>  (21) 
6

>  <pose>  (21) 
[-39.821450454495064, 42.83038038225068, 27.504791586702613, -1.9194959997094239, 1.3457089891716947, 3.639738377622024, 8.386620899734119, 7.245009789324369, -0.8384344469845261, -2.5450344561640112, -3.598539555800975, -0.07681127760845019]

>  <energy>  (21) 
-437.2327134843818

>  <inter_energy>  (21) 
-532.7020502284845

>  <intra_energy>  (21) 
94.49153376846465

>  <rmsd>  (21) 
5.66271

>  <sdf_rank>  (21) 
0

$$$$

     RDKit          3D

 45 47  0  0  0  0  0  0  0  0999 V2000
  -45.3666   42.6015   24.1206 C   0  0  0  0  0  0  0  0  0  0  0  0
  -47.6825   43.2993   23.9189 N   0  0  0  0  0  0  0  0  0  0  0  0
  -45.0562   41.4391   23.9244 O   0  0  0  0  0  0  0  0  0  0  0  0
  -43.2605   43.4772   22.8568 S   0  0  1  0  0  0  0  0  0  0  0  0
  -40.7305   41.1679   29.9794 N   0  0  0  0  0  0  0  0  0  0  0  0
  -41.4944   42.2190   29.6729 C   0  0  0  0  0  0  0  0  0  0  0  0
  -41.1929   43.2907   28.9518 N   0  0  0  0  0  0  0  0  0  0  0  0
  -39.9291   43.2213   28.5138 C   0  0  0  0  0  0  0  0  0  0  0  0
  -39.0235   42.2125   28.7453 C   0  0  0  0  0  0  0  0  0  0  0  0
  -39.4577   41.1290   29.5258 C   0  0  0  0  0  0  0  0  0  0  0  0
  -38.6986   40.0845   29.8348 N   0  0  0  0  0  0  0  0  0  0  0  0
  -37.8172   42.5024   28.1247 N   0  0  0  0  0  0  0  0  0  0  0  0
  -38.0154   43.6613   27.5417 C   0  0  0  0  0  0  0  0  0  0  0  0
  -39.2815   44.1431   27.7424 N   0  0  0  0  0  0  0  0  0  0  0  0
  -46.6212   42.9545   24.8676 C   0  0  0  0  0  0  0  0  0  0  0  0
  -39.8609   45.3846   27.2624 C   0  0  1  0  0  0  0  0  0  0  0  0
  -43.0866   42.1030   22.5926 O   0  0  0  0  0  0  0  0  0  0  0  0
  -39.1914   45.9038   25.9936 C   0  0  2  0  0  0  0  0  0  0  0  0
  -39.0742   47.3059   26.0372 O   0  0  0  0  0  0  0  0  0  0  0  0
  -43.3419   44.3993   21.7943 O   0  0  0  0  0  0  0  0  0  0  0  0
  -40.1476   45.4307   24.8984 C   0  0  2  0  0  0  0  0  0  0  0  0
  -40.0879   46.2650   23.7519 O   0  0  0  0  0  0  0  0  0  0  0  0
  -44.6307   43.6257   23.7114 N   0  0  0  0  0  0  0  0  0  0  0  0
  -41.5011   45.5448   25.6046 C   0  0  2  0  0  0  0  0  0  0  0  0
  -41.2180   45.1540   26.9678 O   0  0  0  0  0  0  0  0  0  0  0  0
  -42.6016   44.6717   25.0555 C   0  0  0  0  0  0  0  0  0  0  0  0
  -42.1595   44.0594   23.8065 O   0  0  0  0  0  0  0  0  0  0  0  0
  -48.5295   43.5744   24.4363 H   0  0  0  0  0  0  0  0  0  0  0  0
  -47.3723   44.0827   23.3266 H   0  0  0  0  0  0  0  0  0  0  0  0
  -47.8920   42.4831   23.3266 H   0  0  0  0  0  0  0  0  0  0  0  0
  -42.5180   42.1926   30.0750 H   0  0  0  0  0  0  0  0  0  0  0  0
  -37.7262   40.0369   29.4984 H   0  0  0  0  0  0  0  0  0  0  0  0
  -39.0820   39.3217   30.4110 H   0  0  0  0  0  0  0  0  0  0  0  0
  -37.2482   44.1883   26.9555 H   0  0  0  0  0  0  0  0  0  0  0  0
  -46.9393   42.0940   25.4746 H   0  0  0  0  0  0  0  0  0  0  0  0
  -46.4243   43.8166   25.5218 H   0  0  0  0  0  0  0  0  0  0  0  0
  -39.7209   46.1383   28.0513 H   0  0  0  0  0  0  0  0  0  0  0  0
  -38.1643   45.5412   25.8404 H   0  0  0  0  0  0  0  0  0  0  0  0
  -39.0491   47.6058   26.9803 H   0  0  0  0  0  0  0  0  0  0  0  0
  -39.9232   44.4242   24.5154 H   0  0  0  0  0  0  0  0  0  0  0  0
  -40.0202   47.2111   24.0354 H   0  0  0  0  0  0  0  0  0  0  0  0
  -44.9493   44.5753   23.9513 H   0  0  0  0  0  0  0  0  0  0  0  0
  -41.8883   46.5662   25.4749 H   0  0  0  0  0  0  0  0  0  0  0  0
  -42.8430   43.8841   25.7846 H   0  0  0  0  0  0  0  0  0  0  0  0
  -43.4959   45.2838   24.8674 H   0  0  0  0  0  0  0  0  0  0  0  0
  1  3  2  0
  1 15  1  0
  1 23  1  0
  2 15  1  0
  4 17  2  0
  4 20  2  0
  4 23  1  0
  4 27  1  1
  5  6  2  0
  5 10  1  0
  6  7  1  0
  7  8  2  0
  8  9  1  0
  8 14  1  0
  9 10  2  0
  9 12  1  0
 10 11  1  0
 12 13  2  0
 13 14  1  0
 16 14  1  0
 16 18  1  0
 16 25  1  0
 18 19  1  0
 18 21  1  0
 21 22  1  0
 21 24  1  0
 24 25  1  0
 24 26  1  0
 26 27  1  0
  2 28  1  0
  2 29  1  0
  2 30  1  0
  6 31  1  0
 11 32  1  0
 11 33  1  0
 13 34  1  0
 15 35  1  0
 15 36  1  0
 16 37  1  1
 18 38  1  6
 19 39  1  0
 21 40  1  6
 22 41  1  0
 23 42  1  0
 24 43  1  1
 26 44  1  0
 26 45  1  0
M  CHG  1   2   1
M  END
>  <filename_input>  (22) 
8SLG_G5A_docked.sdf

>  <pdb_id>  (22) 
8SLG_G5A

>  <pose_rank>  (22) 
21

>  <num_atoms_heavy>  (22) 
27

>  <num_torsions>  (22) 
6

>  <pose>  (22) 
[-39.860908244273084, 45.38458213621349, 27.262418619329864, -0.8333772473275757, -2.606059410913788, 0.041873230858324804, 1.8961755965053702, -1.1949317547176528, -0.5472588756877663, 0.8600073011411834, -0.8994393054917391, -1.9711718163296081]

>  <energy>  (22) 
-631.8481106695281

>  <inter_energy>  (22) 
-682.3386319336117

>  <intra_energy>  (22) 
49.85297657034336

>  <rmsd>  (22) 
7.06807

>  <sdf_rank>  (22) 
0

$$$$

     RDKit          3D

 45 47  0  0  0  0  0  0  0  0999 V2000
  -44.9724   43.1573   24.5255 C   0  0  0  0  0  0  0  0  0  0  0  0
  -47.0921   44.3360   24.4340 N   0  0  0  0  0  0  0  0  0  0  0  0
  -44.9708   41.9411   24.4427 O   0  0  0  0  0  0  0  0  0  0  0  0
  -42.8627   43.3590   23.0062 S   0  0  1  0  0  0  0  0  0  0  0  0
  -44.0526   41.3796   28.5119 N   0  0  0  0  0  0  0  0  0  0  0  0
  -43.8837   42.6156   28.0365 C   0  0  0  0  0  0  0  0  0  0  0  0
  -42.7570   43.2764   27.8050 N   0  0  0  0  0  0  0  0  0  0  0  0
  -41.6968   42.5216   28.1214 C   0  0  0  0  0  0  0  0  0  0  0  0
  -41.7080   41.2401   28.6202 C   0  0  0  0  0  0  0  0  0  0  0  0
  -42.9627   40.6442   28.8259 C   0  0  0  0  0  0  0  0  0  0  0  0
  -43.1331   39.4165   29.3021 N   0  0  0  0  0  0  0  0  0  0  0  0
  -40.4097   40.7948   28.8211 N   0  0  0  0  0  0  0  0  0  0  0  0
  -39.6537   41.8000   28.4467 C   0  0  0  0  0  0  0  0  0  0  0  0
  -40.3824   42.8740   28.0099 N   0  0  0  0  0  0  0  0  0  0  0  0
  -46.0209   43.8797   25.3226 C   0  0  0  0  0  0  0  0  0  0  0  0
  -39.8999   44.1554   27.5274 C   0  0  1  0  0  0  0  0  0  0  0  0
  -42.9750   41.9534   22.9960 O   0  0  0  0  0  0  0  0  0  0  0  0
  -38.7055   44.0271   26.5868 C   0  0  2  0  0  0  0  0  0  0  0  0
  -37.7766   45.0571   26.8274 O   0  0  0  0  0  0  0  0  0  0  0  0
  -42.9149   44.0838   21.7987 O   0  0  0  0  0  0  0  0  0  0  0  0
  -39.3573   44.1377   25.2082 C   0  0  2  0  0  0  0  0  0  0  0  0
  -38.4529   44.6427   24.2381 O   0  0  0  0  0  0  0  0  0  0  0  0
  -44.0604   43.9232   23.9427 N   0  0  0  0  0  0  0  0  0  0  0  0
  -40.4919   45.1274   25.4856 C   0  0  2  0  0  0  0  0  0  0  0  0
  -40.9414   44.7801   26.8155 O   0  0  0  0  0  0  0  0  0  0  0  0
  -41.6607   45.0666   24.5341 C   0  0  0  0  0  0  0  0  0  0  0  0
  -41.5606   43.8615   23.7169 O   0  0  0  0  0  0  0  0  0  0  0  0
  -47.8852   44.6739   24.9976 H   0  0  0  0  0  0  0  0  0  0  0  0
  -46.7426   45.1012   23.8397 H   0  0  0  0  0  0  0  0  0  0  0  0
  -47.4017   43.5538   23.8397 H   0  0  0  0  0  0  0  0  0  0  0  0
  -44.8090   43.1631   27.8039 H   0  0  0  0  0  0  0  0  0  0  0  0
  -42.3148   38.8409   29.5470 H   0  0  0  0  0  0  0  0  0  0  0  0
  -44.0836   39.0397   29.4264 H   0  0  0  0  0  0  0  0  0  0  0  0
  -38.5543   41.7819   28.4801 H   0  0  0  0  0  0  0  0  0  0  0  0
  -46.4388   43.1987   26.0786 H   0  0  0  0  0  0  0  0  0  0  0  0
  -45.5653   44.7493   25.8189 H   0  0  0  0  0  0  0  0  0  0  0  0
  -39.5787   44.7362   28.4045 H   0  0  0  0  0  0  0  0  0  0  0  0
  -38.1302   43.0972   26.7065 H   0  0  0  0  0  0  0  0  0  0  0  0
  -37.6657   45.1801   27.8034 H   0  0  0  0  0  0  0  0  0  0  0  0
  -39.6912   43.1746   24.7948 H   0  0  0  0  0  0  0  0  0  0  0  0
  -37.6856   45.0713   24.6937 H   0  0  0  0  0  0  0  0  0  0  0  0
  -44.1162   44.9405   24.0943 H   0  0  0  0  0  0  0  0  0  0  0  0
  -40.1109   46.1524   25.3665 H   0  0  0  0  0  0  0  0  0  0  0  0
  -42.5993   45.0440   25.1073 H   0  0  0  0  0  0  0  0  0  0  0  0
  -41.6499   45.9531   23.8830 H   0  0  0  0  0  0  0  0  0  0  0  0
  1  3  2  0
  1 15  1  0
  1 23  1  0
  2 15  1  0
  4 17  2  0
  4 20  2  0
  4 23  1  0
  4 27  1  1
  5  6  2  0
  5 10  1  0
  6  7  1  0
  7  8  2  0
  8  9  1  0
  8 14  1  0
  9 10  2  0
  9 12  1  0
 10 11  1  0
 12 13  2  0
 13 14  1  0
 16 14  1  0
 16 18  1  0
 16 25  1  0
 18 19  1  0
 18 21  1  0
 21 22  1  0
 21 24  1  0
 24 25  1  0
 24 26  1  0
 26 27  1  0
  2 28  1  0
  2 29  1  0
  2 30  1  0
  6 31  1  0
 11 32  1  0
 11 33  1  0
 13 34  1  0
 15 35  1  0
 15 36  1  0
 16 37  1  1
 18 38  1  6
 19 39  1  0
 21 40  1  6
 22 41  1  0
 23 42  1  0
 24 43  1  1
 26 44  1  0
 26 45  1  0
M  CHG  1   2   1
M  END
>  <filename_input>  (23) 
8SLG_G5A_docked.sdf

>  <pdb_id>  (23) 
8SLG_G5A

>  <pose_rank>  (23) 
22

>  <num_atoms_heavy>  (23) 
27

>  <num_torsions>  (23) 
6

>  <pose>  (23) 
[-39.899929762136274, 44.155364324206225, 27.527355683895866, -1.7937836752978955, -2.455079829138841, -0.32397023744206516, 2.1984435779128586, -0.8243734712476399, -1.1990881971839091, 0.5058228097420108, -0.9955984667176725, -1.9283386382339927]

>  <energy>  (23) 
-478.77119952610235

>  <inter_energy>  (23) 
-529.9140454878336

>  <intra_energy>  (23) 
54.2839905874863

>  <rmsd>  (23) 
6.71099

>  <sdf_rank>  (23) 
0

$$$$

     RDKit          3D

 45 47  0  0  0  0  0  0  0  0999 V2000
  -39.7607   42.3646   28.3961 C   0  0  0  0  0  0  0  0  0  0  0  0
  -40.2965   40.5172   29.8762 N   0  0  0  0  0  0  0  0  0  0  0  0
  -40.4947   43.0416   29.0952 O   0  0  0  0  0  0  0  0  0  0  0  0
  -39.2699   44.3702   26.8034 S   0  0  1  0  0  0  0  0  0  0  0  0
  -46.9831   41.9953   27.7889 N   0  0  0  0  0  0  0  0  0  0  0  0
  -45.9131   41.3080   27.3825 C   0  0  0  0  0  0  0  0  0  0  0  0
  -45.0701   41.5790   26.3947 N   0  0  0  0  0  0  0  0  0  0  0  0
  -45.4199   42.7151   25.7777 C   0  0  0  0  0  0  0  0  0  0  0  0
  -46.4882   43.5280   26.0760 C   0  0  0  0  0  0  0  0  0  0  0  0
  -47.3126   43.1361   27.1430 C   0  0  0  0  0  0  0  0  0  0  0  0
  -48.3792   43.8161   27.5466 N   0  0  0  0  0  0  0  0  0  0  0  0
  -46.5183   44.6129   25.2120 N   0  0  0  0  0  0  0  0  0  0  0  0
  -45.4854   44.4354   24.4223 C   0  0  0  0  0  0  0  0  0  0  0  0
  -44.7809   43.3002   24.7224 N   0  0  0  0  0  0  0  0  0  0  0  0
  -39.4987   40.9204   28.7159 C   0  0  0  0  0  0  0  0  0  0  0  0
  -43.5942   42.7761   24.0707 C   0  0  1  0  0  0  0  0  0  0  0  0
  -39.1339   45.1923   27.9410 O   0  0  0  0  0  0  0  0  0  0  0  0
  -43.4178   43.2946   22.6467 C   0  0  2  0  0  0  0  0  0  0  0  0
  -42.9390   42.2720   21.8061 O   0  0  0  0  0  0  0  0  0  0  0  0
  -38.3791   44.5052   25.7197 O   0  0  0  0  0  0  0  0  0  0  0  0
  -42.4035   44.4239   22.8298 C   0  0  2  0  0  0  0  0  0  0  0  0
  -41.6454   44.6460   21.6507 O   0  0  0  0  0  0  0  0  0  0  0  0
  -39.1582   42.8345   27.3124 N   0  0  0  0  0  0  0  0  0  0  0  0
  -41.5320   43.8711   23.9605 C   0  0  2  0  0  0  0  0  0  0  0  0
  -42.4682   43.1754   24.8153 O   0  0  0  0  0  0  0  0  0  0  0  0
  -40.7854   44.8988   24.7738 C   0  0  0  0  0  0  0  0  0  0  0  0
  -40.6956   44.4508   26.1599 O   0  0  0  0  0  0  0  0  0  0  0  0
  -39.7969   40.7697   30.7408 H   0  0  0  0  0  0  0  0  0  0  0  0
  -41.2061   40.9998   29.8519 H   0  0  0  0  0  0  0  0  0  0  0  0
  -40.4475   39.4987   29.8519 H   0  0  0  0  0  0  0  0  0  0  0  0
  -45.7005   40.3876   27.9460 H   0  0  0  0  0  0  0  0  0  0  0  0
  -48.6462   44.6876   27.0669 H   0  0  0  0  0  0  0  0  0  0  0  0
  -48.9397   43.4720   28.3393 H   0  0  0  0  0  0  0  0  0  0  0  0
  -45.2149   45.1236   23.6079 H   0  0  0  0  0  0  0  0  0  0  0  0
  -39.7727   40.2991   27.8505 H   0  0  0  0  0  0  0  0  0  0  0  0
  -38.4311   40.7867   28.9447 H   0  0  0  0  0  0  0  0  0  0  0  0
  -43.7032   41.6826   24.0212 H   0  0  0  0  0  0  0  0  0  0  0  0
  -44.3474   43.6378   22.1692 H   0  0  0  0  0  0  0  0  0  0  0  0
  -42.5905   41.5275   22.3578 H   0  0  0  0  0  0  0  0  0  0  0  0
  -42.8591   45.4007   23.0492 H   0  0  0  0  0  0  0  0  0  0  0  0
  -40.7250   44.9157   21.8961 H   0  0  0  0  0  0  0  0  0  0  0  0
  -38.5832   42.1833   26.7591 H   0  0  0  0  0  0  0  0  0  0  0  0
  -40.7338   43.2502   23.5274 H   0  0  0  0  0  0  0  0  0  0  0  0
  -39.7728   45.0262   24.3633 H   0  0  0  0  0  0  0  0  0  0  0  0
  -41.3211   45.8586   24.7327 H   0  0  0  0  0  0  0  0  0  0  0  0
  1  3  2  0
  1 15  1  0
  1 23  1  0
  2 15  1  0
  4 17  2  0
  4 20  2  0
  4 23  1  0
  4 27  1  6
  5  6  2  0
  5 10  1  0
  6  7  1  0
  7  8  2  0
  8  9  1  0
  8 14  1  0
  9 10  2  0
  9 12  1  0
 10 11  1  0
 12 13  2  0
 13 14  1  0
 16 14  1  0
 16 18  1  0
 16 25  1  0
 18 19  1  0
 18 21  1  0
 21 22  1  0
 21 24  1  0
 24 25  1  0
 24 26  1  0
 26 27  1  0
  2 28  1  0
  2 29  1  0
  2 30  1  0
  6 31  1  0
 11 32  1  0
 11 33  1  0
 13 34  1  0
 15 35  1  0
 15 36  1  0
 16 37  1  6
 18 38  1  6
 19 39  1  0
 21 40  1  1
 22 41  1  0
 23 42  1  0
 24 43  1  6
 26 44  1  0
 26 45  1  0
M  CHG  1   2   1
M  END
>  <filename_input>  (24) 
8SLG_G5A_docked.sdf

>  <pdb_id>  (24) 
8SLG_G5A

>  <pose_rank>  (24) 
23

>  <num_atoms_heavy>  (24) 
27

>  <num_torsions>  (24) 
6

>  <pose>  (24) 
[-43.594237300847176, 42.77608663808171, 24.070667272418433, -1.9655617621315598, 0.5281155376816647, -0.8013102111314813, 1.070680417025106, -17.339098076343127, -33.23392795675075, -13.767934589745133, 6.086082288197193, -0.18175787461404075]

>  <energy>  (24) 
-477.78320743098436

>  <inter_energy>  (24) 
-489.54846329076923

>  <intra_energy>  (24) 
14.972355919570418

>  <rmsd>  (24) 
5.58408

>  <sdf_rank>  (24) 
0

$$$$

     RDKit          3D

 45 47  0  0  0  0  0  0  0  0999 V2000
  -49.7087   43.5232   25.1815 C   0  0  0  0  0  0  0  0  0  0  0  0
  -49.2066   41.6217   26.6038 N   0  0  0  0  0  0  0  0  0  0  0  0
  -49.5037   43.1154   24.0512 O   0  0  0  0  0  0  0  0  0  0  0  0
  -48.9535   45.9379   24.5500 S   0  0  1  0  0  0  0  0  0  0  0  0
  -40.6195   46.7296   21.1699 N   0  0  0  0  0  0  0  0  0  0  0  0
  -41.7284   46.1430   20.7131 C   0  0  0  0  0  0  0  0  0  0  0  0
  -42.5124   45.2553   21.3107 N   0  0  0  0  0  0  0  0  0  0  0  0
  -42.0494   44.9688   22.5344 C   0  0  0  0  0  0  0  0  0  0  0  0
  -40.9281   45.4849   23.1406 C   0  0  0  0  0  0  0  0  0  0  0  0
  -40.1753   46.4163   22.4075 C   0  0  0  0  0  0  0  0  0  0  0  0
  -39.0703   46.9982   22.8583 N   0  0  0  0  0  0  0  0  0  0  0  0
  -40.7794   44.9435   24.4091 N   0  0  0  0  0  0  0  0  0  0  0  0
  -41.7964   44.1245   24.5403 C   0  0  0  0  0  0  0  0  0  0  0  0
  -42.6020   44.1024   23.4333 N   0  0  0  0  0  0  0  0  0  0  0  0
  -50.2299   42.6094   26.2539 C   0  0  0  0  0  0  0  0  0  0  0  0
  -43.8054   43.3219   23.2087 C   0  0  1  0  0  0  0  0  0  0  0  0
  -49.9765   46.1628   23.6058 O   0  0  0  0  0  0  0  0  0  0  0  0
  -44.0215   42.2420   24.2647 C   0  0  2  0  0  0  0  0  0  0  0  0
  -44.5217   41.0672   23.6722 O   0  0  0  0  0  0  0  0  0  0  0  0
  -48.4910   46.9940   25.3603 O   0  0  0  0  0  0  0  0  0  0  0  0
  -45.0319   42.8981   25.2060 C   0  0  2  0  0  0  0  0  0  0  0  0
  -45.8222   41.9337   25.8838 O   0  0  0  0  0  0  0  0  0  0  0  0
  -49.4800   44.7758   25.5511 N   0  0  0  0  0  0  0  0  0  0  0  0
  -45.8714   43.7223   24.2263 C   0  0  2  0  0  0  0  0  0  0  0  0
  -44.9111   44.1921   23.2525 O   0  0  0  0  0  0  0  0  0  0  0  0
  -46.5968   44.9043   24.8194 C   0  0  0  0  0  0  0  0  0  0  0  0
  -47.6593   45.3280   23.9129 O   0  0  0  0  0  0  0  0  0  0  0  0
  -49.1336   41.5513   27.6288 H   0  0  0  0  0  0  0  0  0  0  0  0
  -49.4673   40.7045   26.2143 H   0  0  0  0  0  0  0  0  0  0  0  0
  -48.2992   41.9147   26.2143 H   0  0  0  0  0  0  0  0  0  0  0  0
  -42.0352   46.4371   19.6985 H   0  0  0  0  0  0  0  0  0  0  0  0
  -38.7162   46.7724   23.7988 H   0  0  0  0  0  0  0  0  0  0  0  0
  -38.5671   47.6755   22.2676 H   0  0  0  0  0  0  0  0  0  0  0  0
  -41.9815   43.5216   25.4415 H   0  0  0  0  0  0  0  0  0  0  0  0
  -50.4865   43.2010   27.1450 H   0  0  0  0  0  0  0  0  0  0  0  0
  -51.1259   42.0891   25.8842 H   0  0  0  0  0  0  0  0  0  0  0  0
  -43.6963   42.8244   22.2338 H   0  0  0  0  0  0  0  0  0  0  0  0
  -43.1057   41.9255   24.7854 H   0  0  0  0  0  0  0  0  0  0  0  0
  -44.7928   40.4303   24.3799 H   0  0  0  0  0  0  0  0  0  0  0  0
  -44.5717   43.4888   26.0118 H   0  0  0  0  0  0  0  0  0  0  0  0
  -45.7234   42.0542   26.8614 H   0  0  0  0  0  0  0  0  0  0  0  0
  -49.6472   45.0266   26.5360 H   0  0  0  0  0  0  0  0  0  0  0  0
  -46.6802   43.0917   23.8286 H   0  0  0  0  0  0  0  0  0  0  0  0
  -47.0333   44.6184   25.7877 H   0  0  0  0  0  0  0  0  0  0  0  0
  -45.8885   45.7329   24.9668 H   0  0  0  0  0  0  0  0  0  0  0  0
  1  3  2  0
  1 15  1  0
  1 23  1  0
  2 15  1  0
  4 17  2  0
  4 20  2  0
  4 23  1  0
  4 27  1  6
  5  6  2  0
  5 10  1  0
  6  7  1  0
  7  8  2  0
  8  9  1  0
  8 14  1  0
  9 10  2  0
  9 12  1  0
 10 11  1  0
 12 13  2  0
 13 14  1  0
 16 14  1  0
 16 18  1  0
 16 25  1  0
 18 19  1  0
 18 21  1  0
 21 22  1  0
 21 24  1  0
 24 25  1  0
 24 26  1  0
 26 27  1  0
  2 28  1  0
  2 29  1  0
  2 30  1  0
  6 31  1  0
 11 32  1  0
 11 33  1  0
 13 34  1  0
 15 35  1  0
 15 36  1  0
 16 37  1  6
 18 38  1  1
 19 39  1  0
 21 40  1  1
 22 41  1  0
 23 42  1  0
 24 43  1  6
 26 44  1  0
 26 45  1  0
M  CHG  1   2   1
M  END
>  <filename_input>  (25) 
8SLG_G5A_docked.sdf

>  <pdb_id>  (25) 
8SLG_G5A

>  <pose_rank>  (25) 
24

>  <num_atoms_heavy>  (25) 
27

>  <num_torsions>  (25) 
6

>  <pose>  (25) 
[-43.805387756076534, 43.321886307089265, 23.20873594770699, 1.2499281507061595, 0.13419731221722717, -2.8950627326219354, 7.539805072292227, 2.419517308431372, 4.86033431156932, -0.03509753042315452, -12.377640616132108, 0.9555126302534349]

>  <energy>  (25) 
-443.5187999448423

>  <inter_energy>  (25) 
-462.46507658722686

>  <intra_energy>  (25) 
18.949022920491075

>  <rmsd>  (25) 
7.70352

>  <sdf_rank>  (25) 
0

$$$$

     RDKit          3D

 45 47  0  0  0  0  0  0  0  0999 V2000
  -38.7650   40.4960   29.1220 C   0  0  0  0  0  0  0  0  0  0  0  0
  -36.8100   39.1370   29.5930 N   0  0  0  0  0  0  0  0  0  0  0  0
  -38.7800   39.9880   28.0140 O   0  0  0  0  0  0  0  0  0  0  0  0
  -40.6560   42.1740   28.4830 S   0  0  1  0  0  0  0  0  0  0  0  0
  -42.0160   45.1840   20.2080 N   0  0  0  0  0  0  0  0  0  0  0  0
  -41.1300   46.0570   20.6930 C   0  0  0  0  0  0  0  0  0  0  0  0
  -40.5320   46.0720   21.8770 N   0  0  0  0  0  0  0  0  0  0  0  0
  -40.9340   45.0320   22.6190 C   0  0  0  0  0  0  0  0  0  0  0  0
  -41.8350   44.0560   22.2630 C   0  0  0  0  0  0  0  0  0  0  0  0
  -42.4050   44.1470   20.9830 C   0  0  0  0  0  0  0  0  0  0  0  0
  -43.2890   43.2820   20.5000 N   0  0  0  0  0  0  0  0  0  0  0  0
  -41.9910   43.1490   23.3010 N   0  0  0  0  0  0  0  0  0  0  0  0
  -41.1950   43.5890   24.2470 C   0  0  0  0  0  0  0  0  0  0  0  0
  -40.5260   44.7280   23.8860 N   0  0  0  0  0  0  0  0  0  0  0  0
  -37.8290   40.0040   30.1890 C   0  0  0  0  0  0  0  0  0  0  0  0
  -39.5740   45.5000   24.6640 C   0  0  1  0  0  0  0  0  0  0  0  0
  -41.5020   41.1310   28.0530 O   0  0  0  0  0  0  0  0  0  0  0  0
  -40.2430   46.4830   25.6200 C   0  0  2  0  0  0  0  0  0  0  0  0
  -39.5250   47.6930   25.6640 O   0  0  0  0  0  0  0  0  0  0  0  0
  -41.1900   43.2850   29.1660 O   0  0  0  0  0  0  0  0  0  0  0  0
  -40.2020   45.7300   26.9500 C   0  0  2  0  0  0  0  0  0  0  0  0
  -40.1970   46.6180   28.0570 O   0  0  0  0  0  0  0  0  0  0  0  0
  -39.5470   41.5110   29.4630 N   0  0  0  0  0  0  0  0  0  0  0  0
  -38.8760   44.9740   26.8320 C   0  0  2  0  0  0  0  0  0  0  0  0
  -38.8060   44.6070   25.4350 O   0  0  0  0  0  0  0  0  0  0  0  0
  -38.7530   43.7320   27.6790 C   0  0  0  0  0  0  0  0  0  0  0  0
  -39.8090   42.7910   27.3190 O   0  0  0  0  0  0  0  0  0  0  0  0
  -36.2702   38.6777   30.3403 H   0  0  0  0  0  0  0  0  0  0  0  0
  -37.2666   38.4213   29.0098 H   0  0  0  0  0  0  0  0  0  0  0  0
  -36.1766   39.7023   29.0098 H   0  0  0  0  0  0  0  0  0  0  0  0
  -40.8575   46.8796   20.0155 H   0  0  0  0  0  0  0  0  0  0  0  0
  -43.5976   42.4855   21.0755 H   0  0  0  0  0  0  0  0  0  0  0  0
  -43.6662   43.4075   19.5498 H   0  0  0  0  0  0  0  0  0  0  0  0
  -41.0779   43.0965   25.2236 H   0  0  0  0  0  0  0  0  0  0  0  0
  -37.3406   40.8636   30.6712 H   0  0  0  0  0  0  0  0  0  0  0  0
  -38.3987   39.4338   30.9375 H   0  0  0  0  0  0  0  0  0  0  0  0
  -38.9646   46.0796   23.9550 H   0  0  0  0  0  0  0  0  0  0  0  0
  -41.2643   46.7733   25.3325 H   0  0  0  0  0  0  0  0  0  0  0  0
  -39.3716   47.9516   26.6072 H   0  0  0  0  0  0  0  0  0  0  0  0
  -41.0749   45.0833   27.1229 H   0  0  0  0  0  0  0  0  0  0  0  0
  -40.1999   46.0964   28.8985 H   0  0  0  0  0  0  0  0  0  0  0  0
  -39.4436   41.9030   30.4098 H   0  0  0  0  0  0  0  0  0  0  0  0
  -38.0619   45.6191   27.1941 H   0  0  0  0  0  0  0  0  0  0  0  0
  -37.7718   43.2658   27.5059 H   0  0  0  0  0  0  0  0  0  0  0  0
  -38.8486   44.0016   28.7411 H   0  0  0  0  0  0  0  0  0  0  0  0
  1  3  2  0
  1 15  1  0
  1 23  1  0
  2 15  1  0
  4 17  2  0
  4 20  2  0
  4 23  1  0
  4 27  1  6
  5  6  2  0
  5 10  1  0
  6  7  1  0
  7  8  2  0
  8  9  1  0
  8 14  1  0
  9 10  2  0
  9 12  1  0
 10 11  1  0
 12 13  2  0
 13 14  1  0
 16 14  1  0
 16 18  1  0
 16 25  1  0
 18 19  1  0
 18 21  1  0
 21 22  1  0
 21 24  1  0
 24 25  1  0
 24 26  1  0
 26 27  1  0
  2 28  1  0
  2 29  1  0
  2 30  1  0
  6 31  1  0
 11 32  1  0
 11 33  1  0
 13 34  1  0
 15 35  1  0
 15 36  1  0
 16 37  1  6
 18 38  1  6
 19 39  1  0
 21 40  1  1
 22 41  1  0
 23 42  1  0
 24 43  1  1
 26 44  1  0
 26 45  1  0
M  CHG  1   2   1
M  END
>  <filename_input>  (26) 
8SLG_G5A_docked.sdf

>  <pdb_id>  (26) 
8SLG_G5A

>  <pose_rank>  (26) 
25

>  <num_atoms_heavy>  (26) 
27

>  <num_torsions>  (26) 
6

>  <pose>  (26) 
[-39.574, 45.5, 24.664, 1e-06, 1e-06, 1e-06, 0.0, 0.0, 0.0, 0.0, 0.0, 0.0]

>  <energy>  (26) 
-1029.6861253700977

>  <inter_energy>  (26) 
-1058.7391208795732

>  <intra_energy>  (26) 
14.080376486870648

>  <rmsd>  (26) 
0.0

>  <sdf_rank>  (26) 
0

$$$$
