
     RDKit          3D

 16 17  0  0  0  0  0  0  0  0999 V2000
  134.1141  376.9325 -795.7343 C   0  0  0  0  0  0  0  0  0  0  0  0
  134.9813  375.8041 -795.9658 O   0  0  0  0  0  0  0  0  0  0  0  0
  132.8185  376.7665 -796.5184 C   0  0  0  0  0  0  0  0  0  0  0  0
  132.1860  378.0417 -796.4929 O   0  0  0  0  0  0  0  0  0  0  0  0
  130.9088  378.0654 -797.1557 C   0  0  0  0  0  0  0  0  0  0  0  0
  131.1799  379.0570 -798.1910 N   0  0  0  0  0  0  0  0  0  0  0  0
  131.8292  378.8496 -799.3500 C   0  0  0  0  0  0  0  0  0  0  0  0
  131.8244  380.0067 -800.0732 N   0  0  0  0  0  0  0  0  0  0  0  0
  131.1313  380.9185 -799.3517 C   0  0  0  0  0  0  0  0  0  0  0  0
  130.7761  382.2502 -799.5415 C   0  0  0  0  0  0  0  0  0  0  0  0
  131.1030  382.8769 -800.5789 O   0  0  0  0  0  0  0  0  0  0  0  0
  130.0605  382.8490 -798.5612 N   0  0  0  0  0  0  0  0  0  0  0  0
  129.6872  382.2007 -797.4583 C   0  0  0  0  0  0  0  0  0  0  0  0
  128.9893  382.8093 -796.4846 N   0  0  0  0  0  0  0  0  0  0  0  0
  130.0349  380.9467 -797.2652 N   0  0  0  0  0  0  0  0  0  0  0  0
  130.7462  380.2939 -798.1735 C   0  0  0  0  0  0  0  0  0  0  0  0
  1  2  1  6
  1  3  1  0
  3  4  1  1
  5  4  1  6
  5  6  1  0
  6  7  1  0
  6 16  1  0
  7  8  2  0
  8  9  1  0
  9 10  1  0
  9 16  2  0
 10 11  2  0
 10 12  1  0
 12 13  1  0
 13 14  1  0
 13 15  2  0
 15 16  1  0
M  END
$$$$
