
     RDKit          3D

 16 17  0  0  0  0  0  0  0  0999 V2000
  533.1644  160.7489 -246.3923 C   0  0  0  0  0  0  0  0  0  0  0  0
  533.2326  161.7570 -245.3643 O   0  0  0  0  0  0  0  0  0  0  0  0
  531.9299  160.9677 -247.2583 C   0  0  0  0  0  0  0  0  0  0  0  0
  531.6411  159.7029 -247.8453 O   0  0  0  0  0  0  0  0  0  0  0  0
  532.7682  159.1040 -248.5094 C   0  0  0  0  0  0  0  0  0  0  0  0
  533.8320  159.4665 -247.5784 N   0  0  0  0  0  0  0  0  0  0  0  0
  533.7138  160.2480 -246.4908 C   0  0  0  0  0  0  0  0  0  0  0  0
  534.9169  160.2971 -245.8485 N   0  0  0  0  0  0  0  0  0  0  0  0
  535.7662  159.5047 -246.5437 C   0  0  0  0  0  0  0  0  0  0  0  0
  537.1016  159.1409 -246.4013 C   0  0  0  0  0  0  0  0  0  0  0  0
  537.8018  159.5682 -245.4513 O   0  0  0  0  0  0  0  0  0  0  0  0
  537.6209  158.3046 -247.3296 N   0  0  0  0  0  0  0  0  0  0  0  0
  536.8935  157.8244 -248.3377 C   0  0  0  0  0  0  0  0  0  0  0  0
  537.4236  157.0060 -249.2626 N   0  0  0  0  0  0  0  0  0  0  0  0
  535.6357  158.1784 -248.4878 N   0  0  0  0  0  0  0  0  0  0  0  0
  535.0574  159.0037 -247.6263 C   0  0  0  0  0  0  0  0  0  0  0  0
  1  2  1  6
  1  3  1  0
  3  4  1  1
  5  4  1  6
  5  6  1  0
  6  7  1  0
  6 16  1  0
  7  8  2  0
  8  9  1  0
  9 10  1  0
  9 16  2  0
 10 11  2  0
 10 12  1  0
 12 13  1  0
 13 14  1  0
 13 15  2  0
 15 16  1  0
M  END
$$$$
