
     RDKit          3D

 16 17  0  0  0  0  0  0  0  0999 V2000
   25.0470  124.2894    3.6523 C   0  0  0  0  0  0  0  0  0  0  0  0
   24.4084  125.4495    3.0829 O   0  0  0  0  0  0  0  0  0  0  0  0
   25.7208  124.6563    4.9686 C   0  0  0  0  0  0  0  0  0  0  0  0
   24.7665  125.4302    5.6884 O   0  0  0  0  0  0  0  0  0  0  0  0
   25.3113  126.6339    6.2582 C   0  0  0  0  0  0  0  0  0  0  0  0
   24.0967  127.4356    6.3639 N   0  0  0  0  0  0  0  0  0  0  0  0
   23.7029  128.4095    5.5247 C   0  0  0  0  0  0  0  0  0  0  0  0
   22.4860  128.8763    5.9288 N   0  0  0  0  0  0  0  0  0  0  0  0
   22.1251  128.1483    7.0114 C   0  0  0  0  0  0  0  0  0  0  0  0
   21.0196  128.1340    7.8559 C   0  0  0  0  0  0  0  0  0  0  0  0
   20.0557  128.9212    7.6909 O   0  0  0  0  0  0  0  0  0  0  0  0
   21.0209  127.2353    8.8674 N   0  0  0  0  0  0  0  0  0  0  0  0
   22.0241  126.3784    9.0536 C   0  0  0  0  0  0  0  0  0  0  0  0
   22.0220  125.4998   10.0706 N   0  0  0  0  0  0  0  0  0  0  0  0
   23.0801  126.3986    8.2694 N   0  0  0  0  0  0  0  0  0  0  0  0
   23.1594  127.2577    7.2629 C   0  0  0  0  0  0  0  0  0  0  0  0
  1  2  1  6
  1  3  1  0
  3  4  1  1
  5  4  1  6
  5  6  1  0
  6  7  1  0
  6 16  1  0
  7  8  2  0
  8  9  1  0
  9 10  1  0
  9 16  2  0
 10 11  2  0
 10 12  1  0
 12 13  1  0
 13 14  1  0
 13 15  2  0
 15 16  1  0
M  END
$$$$
