
     RDKit          3D

 16 17  0  0  0  0  0  0  0  0999 V2000
  332.5591  -19.4655  111.0040 C   0  0  0  0  0  0  0  0  0  0  0  0
  332.3011  -20.7381  110.3781 O   0  0  0  0  0  0  0  0  0  0  0  0
  331.2713  -18.9003  111.5902 C   0  0  0  0  0  0  0  0  0  0  0  0
  330.4539  -18.5636  110.4738 O   0  0  0  0  0  0  0  0  0  0  0  0
  329.4055  -17.6296  110.7872 C   0  0  0  0  0  0  0  0  0  0  0  0
  330.1935  -16.5553  111.3824 N   0  0  0  0  0  0  0  0  0  0  0  0
  330.4511  -15.3533  110.8379 C   0  0  0  0  0  0  0  0  0  0  0  0
  331.1683  -14.6087  111.7287 N   0  0  0  0  0  0  0  0  0  0  0  0
  331.3173  -15.3636  112.8424 C   0  0  0  0  0  0  0  0  0  0  0  0
  331.9305  -15.1750  114.0767 C   0  0  0  0  0  0  0  0  0  0  0  0
  332.5159  -14.1020  114.3632 O   0  0  0  0  0  0  0  0  0  0  0  0
  331.8724  -16.1959  114.9629 N   0  0  0  0  0  0  0  0  0  0  0  0
  331.2431  -17.3379  114.6889 C   0  0  0  0  0  0  0  0  0  0  0  0
  331.2041  -18.3512  115.5709 N   0  0  0  0  0  0  0  0  0  0  0  0
  330.6764  -17.5292  113.5172 N   0  0  0  0  0  0  0  0  0  0  0  0
  330.7005  -16.5813  112.5909 C   0  0  0  0  0  0  0  0  0  0  0  0
  1  2  1  6
  1  3  1  0
  3  4  1  1
  5  4  1  6
  5  6  1  0
  6  7  1  0
  6 16  1  0
  7  8  2  0
  8  9  1  0
  9 10  1  0
  9 16  2  0
 10 11  2  0
 10 12  1  0
 12 13  1  0
 13 14  1  0
 13 15  2  0
 15 16  1  0
M  END
$$$$
