
     RDKit          3D

 16 17  0  0  0  0  0  0  0  0999 V2000
 -193.0944  -56.1930  693.9974 C   0  0  0  0  0  0  0  0  0  0  0  0
 -193.4752  -55.3350  692.9037 O   0  0  0  0  0  0  0  0  0  0  0  0
 -192.2405  -57.3463  693.4854 C   0  0  0  0  0  0  0  0  0  0  0  0
 -191.0406  -56.7526  693.0001 O   0  0  0  0  0  0  0  0  0  0  0  0
 -191.2552  -55.7950  691.9479 C   0  0  0  0  0  0  0  0  0  0  0  0
 -192.0185  -54.7866  692.6756 N   0  0  0  0  0  0  0  0  0  0  0  0
 -192.8615  -55.0035  693.7005 C   0  0  0  0  0  0  0  0  0  0  0  0
 -193.3312  -53.8031  694.1486 N   0  0  0  0  0  0  0  0  0  0  0  0
 -192.7354  -52.8439  693.4017 C   0  0  0  0  0  0  0  0  0  0  0  0
 -192.7889  -51.4541  693.3718 C   0  0  0  0  0  0  0  0  0  0  0  0
 -193.5125  -50.8064  694.1672 O   0  0  0  0  0  0  0  0  0  0  0  0
 -192.0283  -50.8221  692.4485 N   0  0  0  0  0  0  0  0  0  0  0  0
 -191.2399  -51.4860  691.6042 C   0  0  0  0  0  0  0  0  0  0  0  0
 -190.4995  -50.8488  690.6808 N   0  0  0  0  0  0  0  0  0  0  0  0
 -191.1981  -52.8008  691.6155 N   0  0  0  0  0  0  0  0  0  0  0  0
 -191.9231  -53.4934  692.4825 C   0  0  0  0  0  0  0  0  0  0  0  0
  1  2  1  6
  1  3  1  0
  3  4  1  1
  5  4  1  6
  5  6  1  0
  6  7  1  0
  6 16  1  0
  7  8  2  0
  8  9  1  0
  9 10  1  0
  9 16  2  0
 10 11  2  0
 10 12  1  0
 12 13  1  0
 13 14  1  0
 13 15  2  0
 15 16  1  0
M  END
$$$$
