
     RDKit          3D

 16 17  0  0  0  0  0  0  0  0999 V2000
   -4.8459 -442.7923  507.7968 C   0  0  0  0  0  0  0  0  0  0  0  0
   -3.5122 -442.5419  508.2825 O   0  0  0  0  0  0  0  0  0  0  0  0
   -5.8354 -441.8541  508.4762 C   0  0  0  0  0  0  0  0  0  0  0  0
   -6.1010 -440.8229  507.5308 O   0  0  0  0  0  0  0  0  0  0  0  0
   -7.3503 -440.9852  506.8356 C   0  0  0  0  0  0  0  0  0  0  0  0
   -7.7116 -439.5854  506.6357 N   0  0  0  0  0  0  0  0  0  0  0  0
   -8.0997 -439.0140  505.4822 C   0  0  0  0  0  0  0  0  0  0  0  0
   -8.4079 -437.7059  505.7183 N   0  0  0  0  0  0  0  0  0  0  0  0
   -8.2339 -437.4937  507.0439 C   0  0  0  0  0  0  0  0  0  0  0  0
   -8.3860 -436.3975  507.8867 C   0  0  0  0  0  0  0  0  0  0  0  0
   -8.7719 -435.2840  507.4547 O   0  0  0  0  0  0  0  0  0  0  0  0
   -8.1015 -436.5767  509.1974 N   0  0  0  0  0  0  0  0  0  0  0  0
   -7.7061 -437.7527  509.6833 C   0  0  0  0  0  0  0  0  0  0  0  0
   -7.4116 -437.9156  510.9846 N   0  0  0  0  0  0  0  0  0  0  0  0
   -7.5434 -438.7884  508.8886 N   0  0  0  0  0  0  0  0  0  0  0  0
   -7.7904 -438.6903  507.5899 C   0  0  0  0  0  0  0  0  0  0  0  0
  1  2  1  6
  1  3  1  0
  3  4  1  1
  5  4  1  6
  5  6  1  0
  6  7  1  0
  6 16  1  0
  7  8  2  0
  8  9  1  0
  9 10  1  0
  9 16  2  0
 10 11  2  0
 10 12  1  0
 12 13  1  0
 13 14  1  0
 13 15  2  0
 15 16  1  0
M  END
$$$$
