
     RDKit          3D

 16 17  0  0  0  0  0  0  0  0999 V2000
  -34.0185 -160.1213  206.4062 C   0  0  0  0  0  0  0  0  0  0  0  0
  -32.6026 -159.8883  206.4253 O   0  0  0  0  0  0  0  0  0  0  0  0
  -34.2843 -161.4449  205.7231 C   0  0  0  0  0  0  0  0  0  0  0  0
  -34.0420 -162.4385  206.7270 O   0  0  0  0  0  0  0  0  0  0  0  0
  -34.3094 -162.0411  208.0912 C   0  0  0  0  0  0  0  0  0  0  0  0
  -33.2680 -161.0414  208.2231 N   0  0  0  0  0  0  0  0  0  0  0  0
  -32.1502 -161.0343  208.9503 C   0  0  0  0  0  0  0  0  0  0  0  0
  -31.4697 -159.8969  208.6871 N   0  0  0  0  0  0  0  0  0  0  0  0
  -32.1792 -159.1935  207.7815 C   0  0  0  0  0  0  0  0  0  0  0  0
  -31.9944 -157.9772  207.1573 C   0  0  0  0  0  0  0  0  0  0  0  0
  -30.9392 -157.3188  207.4384 O   0  0  0  0  0  0  0  0  0  0  0  0
  -32.9482 -157.5727  206.2680 N   0  0  0  0  0  0  0  0  0  0  0  0
  -34.0591 -158.3245  206.0053 C   0  0  0  0  0  0  0  0  0  0  0  0
  -35.0264 -157.9651  205.1403 N   0  0  0  0  0  0  0  0  0  0  0  0
  -34.2383 -159.4793  206.6293 N   0  0  0  0  0  0  0  0  0  0  0  0
  -33.3016 -159.9291  207.4831 C   0  0  0  0  0  0  0  0  0  0  0  0
  1  2  1  6
  1  3  1  0
  3  4  1  1
  5  4  1  6
  5  6  1  0
  6  7  1  0
  6 16  1  0
  7  8  2  0
  8  9  1  0
  9 10  1  0
  9 16  2  0
 10 11  2  0
 10 12  1  0
 12 13  1  0
 13 14  1  0
 13 15  2  0
 15 16  1  0
M  END
$$$$
