
     RDKit          3D

 16 17  0  0  0  0  0  0  0  0999 V2000
 -152.7874 -258.7438  -63.5283 C   0  0  0  0  0  0  0  0  0  0  0  0
 -153.7479 -258.9048  -64.5824 O   0  0  0  0  0  0  0  0  0  0  0  0
 -153.5160 -258.3467  -62.2631 C   0  0  0  0  0  0  0  0  0  0  0  0
 -152.8274 -257.1848  -61.7845 O   0  0  0  0  0  0  0  0  0  0  0  0
 -151.4066 -257.3350  -61.5634 C   0  0  0  0  0  0  0  0  0  0  0  0
 -151.1543 -256.0438  -60.9552 N   0  0  0  0  0  0  0  0  0  0  0  0
 -150.6617 -255.7223  -59.7583 C   0  0  0  0  0  0  0  0  0  0  0  0
 -150.5581 -254.3774  -59.6796 N   0  0  0  0  0  0  0  0  0  0  0  0
 -150.9919 -253.8626  -60.8480 C   0  0  0  0  0  0  0  0  0  0  0  0
 -151.1267 -252.5794  -61.3365 C   0  0  0  0  0  0  0  0  0  0  0  0
 -150.7750 -251.6151  -60.5798 O   0  0  0  0  0  0  0  0  0  0  0  0
 -151.6116 -252.4344  -62.6043 N   0  0  0  0  0  0  0  0  0  0  0  0
 -151.9704 -253.5084  -63.3701 C   0  0  0  0  0  0  0  0  0  0  0  0
 -152.4560 -253.4139  -64.6225 N   0  0  0  0  0  0  0  0  0  0  0  0
 -151.8598 -254.7348  -62.8814 N   0  0  0  0  0  0  0  0  0  0  0  0
 -151.3498 -254.9194  -61.6509 C   0  0  0  0  0  0  0  0  0  0  0  0
  1  2  1  6
  1  3  1  0
  3  4  1  1
  5  4  1  6
  5  6  1  0
  6  7  1  0
  6 16  1  0
  7  8  2  0
  8  9  1  0
  9 10  1  0
  9 16  2  0
 10 11  2  0
 10 12  1  0
 12 13  1  0
 13 14  1  0
 13 15  2  0
 15 16  1  0
M  END
$$$$
