
     RDKit          3D

 16 17  0  0  0  0  0  0  0  0999 V2000
 -304.0837  178.3431 -217.0321 C   0  0  0  0  0  0  0  0  0  0  0  0
 -303.7051  178.4355 -215.6510 O   0  0  0  0  0  0  0  0  0  0  0  0
 -304.5388  176.9287 -217.3179 C   0  0  0  0  0  0  0  0  0  0  0  0
 -303.4117  176.2908 -217.9317 O   0  0  0  0  0  0  0  0  0  0  0  0
 -302.5546  175.5305 -217.0500 C   0  0  0  0  0  0  0  0  0  0  0  0
 -301.7460  174.8772 -218.0602 N   0  0  0  0  0  0  0  0  0  0  0  0
 -300.6486  174.1274 -217.9515 C   0  0  0  0  0  0  0  0  0  0  0  0
 -300.2974  173.6929 -219.1819 N   0  0  0  0  0  0  0  0  0  0  0  0
 -301.1945  174.1816 -220.0621 C   0  0  0  0  0  0  0  0  0  0  0  0
 -301.3422  174.0856 -221.4304 C   0  0  0  0  0  0  0  0  0  0  0  0
 -300.4878  173.3908 -222.0732 O   0  0  0  0  0  0  0  0  0  0  0  0
 -302.4047  174.7287 -221.9973 N   0  0  0  0  0  0  0  0  0  0  0  0
 -303.2903  175.4581 -221.2546 C   0  0  0  0  0  0  0  0  0  0  0  0
 -304.3492  176.1113 -221.7697 N   0  0  0  0  0  0  0  0  0  0  0  0
 -303.1247  175.5637 -219.9444 N   0  0  0  0  0  0  0  0  0  0  0  0
 -302.1120  174.9125 -219.3450 C   0  0  0  0  0  0  0  0  0  0  0  0
  1  2  1  6
  1  3  1  0
  3  4  1  1
  5  4  1  6
  5  6  1  0
  6  7  1  0
  6 16  1  0
  7  8  2  0
  8  9  1  0
  9 10  1  0
  9 16  2  0
 10 11  2  0
 10 12  1  0
 12 13  1  0
 13 14  1  0
 13 15  2  0
 15 16  1  0
M  END
$$$$
