
     RDKit          3D

 16 17  0  0  0  0  0  0  0  0999 V2000
  -87.2005   67.7239 -486.5448 C   0  0  0  0  0  0  0  0  0  0  0  0
  -85.9143   67.1377 -486.7930 O   0  0  0  0  0  0  0  0  0  0  0  0
  -87.0763   69.2285 -486.6424 C   0  0  0  0  0  0  0  0  0  0  0  0
  -85.8708   69.4563 -487.3834 O   0  0  0  0  0  0  0  0  0  0  0  0
  -85.9236   70.5087 -488.3733 C   0  0  0  0  0  0  0  0  0  0  0  0
  -86.7829   69.8459 -489.3342 N   0  0  0  0  0  0  0  0  0  0  0  0
  -87.8342   70.2936 -490.0216 C   0  0  0  0  0  0  0  0  0  0  0  0
  -88.2657   69.3103 -490.8420 N   0  0  0  0  0  0  0  0  0  0  0  0
  -87.4655   68.2407 -490.6583 C   0  0  0  0  0  0  0  0  0  0  0  0
  -87.4262   66.9716 -491.1977 C   0  0  0  0  0  0  0  0  0  0  0  0
  -88.2993   66.6721 -492.0775 O   0  0  0  0  0  0  0  0  0  0  0  0
  -86.4423   66.1310 -490.7625 N   0  0  0  0  0  0  0  0  0  0  0  0
  -85.5311   66.5102 -489.8167 C   0  0  0  0  0  0  0  0  0  0  0  0
  -84.5472   65.7153 -489.3552 N   0  0  0  0  0  0  0  0  0  0  0  0
  -85.5938   67.7232 -489.2878 N   0  0  0  0  0  0  0  0  0  0  0  0
  -86.5250   68.5924 -489.7193 C   0  0  0  0  0  0  0  0  0  0  0  0
  1  2  1  6
  1  3  1  0
  3  4  1  1
  5  4  1  6
  5  6  1  0
  6  7  1  0
  6 16  1  0
  7  8  2  0
  8  9  1  0
  9 10  1  0
  9 16  2  0
 10 11  2  0
 10 12  1  0
 12 13  1  0
 13 14  1  0
 13 15  2  0
 15 16  1  0
M  END
$$$$
