
     RDKit          3D

 16 17  0  0  0  0  0  0  0  0999 V2000
 -154.4464  133.3557   77.3349 C   0  0  0  0  0  0  0  0  0  0  0  0
 -155.4492  134.3717   77.4815 O   0  0  0  0  0  0  0  0  0  0  0  0
 -153.4815  133.4536   78.4962 C   0  0  0  0  0  0  0  0  0  0  0  0
 -153.0289  132.1122   78.7195 O   0  0  0  0  0  0  0  0  0  0  0  0
 -153.2955  131.1672   77.6582 C   0  0  0  0  0  0  0  0  0  0  0  0
 -153.4560  132.1150   76.5731 N   0  0  0  0  0  0  0  0  0  0  0  0
 -154.3959  133.0333   76.3464 C   0  0  0  0  0  0  0  0  0  0  0  0
 -154.0722  133.7167   75.2265 N   0  0  0  0  0  0  0  0  0  0  0  0
 -152.9130  133.2121   74.7575 C   0  0  0  0  0  0  0  0  0  0  0  0
 -152.1196  133.4944   73.6647 C   0  0  0  0  0  0  0  0  0  0  0  0
 -152.4923  134.4327   72.8858 O   0  0  0  0  0  0  0  0  0  0  0  0
 -150.9807  132.7588   73.5049 N   0  0  0  0  0  0  0  0  0  0  0  0
 -150.6315  131.7652   74.3762 C   0  0  0  0  0  0  0  0  0  0  0  0
 -149.5214  131.0124   74.2571 N   0  0  0  0  0  0  0  0  0  0  0  0
 -151.4140  131.4863   75.4082 N   0  0  0  0  0  0  0  0  0  0  0  0
 -152.5242  132.2151   75.6205 C   0  0  0  0  0  0  0  0  0  0  0  0
  1  2  1  6
  1  3  1  0
  3  4  1  1
  5  4  1  6
  5  6  1  0
  6  7  1  0
  6 16  1  0
  7  8  2  0
  8  9  1  0
  9 10  1  0
  9 16  2  0
 10 11  2  0
 10 12  1  0
 12 13  1  0
 13 14  1  0
 13 15  2  0
 15 16  1  0
M  END
$$$$
