
     RDKit          3D

 16 17  0  0  0  0  0  0  0  0999 V2000
 -484.8315   62.3867 -285.2305 C   0  0  0  0  0  0  0  0  0  0  0  0
 -485.9839   61.9062 -285.9377 O   0  0  0  0  0  0  0  0  0  0  0  0
 -485.0487   63.8420 -284.8783 C   0  0  0  0  0  0  0  0  0  0  0  0
 -483.7496   64.4424 -284.9548 O   0  0  0  0  0  0  0  0  0  0  0  0
 -482.6335   63.5854 -284.6234 C   0  0  0  0  0  0  0  0  0  0  0  0
 -482.3255   64.1414 -283.3207 N   0  0  0  0  0  0  0  0  0  0  0  0
 -481.2786   64.8512 -282.8983 C   0  0  0  0  0  0  0  0  0  0  0  0
 -481.4804   65.1940 -281.6069 N   0  0  0  0  0  0  0  0  0  0  0  0
 -482.6721   64.6888 -281.2288 C   0  0  0  0  0  0  0  0  0  0  0  0
 -483.3874   64.7056 -280.0491 C   0  0  0  0  0  0  0  0  0  0  0  0
 -482.8809   65.3240 -279.0557 O   0  0  0  0  0  0  0  0  0  0  0  0
 -484.5966   64.0724 -280.0354 N   0  0  0  0  0  0  0  0  0  0  0  0
 -485.0894   63.4272 -281.1349 C   0  0  0  0  0  0  0  0  0  0  0  0
 -486.2738   62.7871 -281.1670 N   0  0  0  0  0  0  0  0  0  0  0  0
 -484.3827   63.3963 -282.2549 N   0  0  0  0  0  0  0  0  0  0  0  0
 -483.2043   64.0416 -282.3186 C   0  0  0  0  0  0  0  0  0  0  0  0
  1  2  1  6
  1  3  1  0
  3  4  1  1
  5  4  1  6
  5  6  1  0
  6  7  1  0
  6 16  1  0
  7  8  2  0
  8  9  1  0
  9 10  1  0
  9 16  2  0
 10 11  2  0
 10 12  1  0
 12 13  1  0
 13 14  1  0
 13 15  2  0
 15 16  1  0
M  END
$$$$
