
     RDKit          3D

 16 17  0  0  0  0  0  0  0  0999 V2000
  -82.6543  -69.1693 -135.0315 C   0  0  0  0  0  0  0  0  0  0  0  0
  -83.6911  -68.3528 -135.5952 O   0  0  0  0  0  0  0  0  0  0  0  0
  -82.6293  -68.9581 -133.5336 C   0  0  0  0  0  0  0  0  0  0  0  0
  -81.2396  -68.9232 -133.1846 O   0  0  0  0  0  0  0  0  0  0  0  0
  -80.5116  -67.7434 -133.5950 C   0  0  0  0  0  0  0  0  0  0  0  0
  -80.4838  -68.0032 -135.0208 N   0  0  0  0  0  0  0  0  0  0  0  0
  -81.3827  -68.5749 -135.8229 C   0  0  0  0  0  0  0  0  0  0  0  0
  -80.9204  -68.5314 -137.0919 N   0  0  0  0  0  0  0  0  0  0  0  0
  -79.7182  -67.9211 -137.0709 C   0  0  0  0  0  0  0  0  0  0  0  0
  -78.7875  -67.6077 -138.0398 C   0  0  0  0  0  0  0  0  0  0  0  0
  -79.0556  -67.9229 -139.2459 O   0  0  0  0  0  0  0  0  0  0  0  0
  -77.6512  -66.9655 -137.6392 N   0  0  0  0  0  0  0  0  0  0  0  0
  -77.4202  -66.6508 -136.3294 C   0  0  0  0  0  0  0  0  0  0  0  0
  -76.3144  -66.0220 -135.8878 N   0  0  0  0  0  0  0  0  0  0  0  0
  -78.3098  -66.9788 -135.4041 N   0  0  0  0  0  0  0  0  0  0  0  0
  -79.4588  -67.5775 -135.7652 C   0  0  0  0  0  0  0  0  0  0  0  0
  1  2  1  6
  1  3  1  0
  3  4  1  1
  5  4  1  6
  5  6  1  0
  6  7  1  0
  6 16  1  0
  7  8  2  0
  8  9  1  0
  9 10  1  0
  9 16  2  0
 10 11  2  0
 10 12  1  0
 12 13  1  0
 13 14  1  0
 13 15  2  0
 15 16  1  0
M  END
$$$$
