
     RDKit          3D

 16 17  0  0  0  0  0  0  0  0999 V2000
 -150.5954 -238.8694   90.4541 C   0  0  0  0  0  0  0  0  0  0  0  0
 -150.8222 -238.4148   89.1121 O   0  0  0  0  0  0  0  0  0  0  0  0
 -151.6807 -239.8568   90.8233 C   0  0  0  0  0  0  0  0  0  0  0  0
 -151.2775 -241.0953   90.2257 O   0  0  0  0  0  0  0  0  0  0  0  0
 -152.1176 -242.2382   90.5058 C   0  0  0  0  0  0  0  0  0  0  0  0
 -152.8595 -241.6815   91.6197 N   0  0  0  0  0  0  0  0  0  0  0  0
 -153.2076 -240.4246   91.8972 C   0  0  0  0  0  0  0  0  0  0  0  0
 -153.9515 -240.4204   93.0254 N   0  0  0  0  0  0  0  0  0  0  0  0
 -154.0650 -241.6959   93.4478 C   0  0  0  0  0  0  0  0  0  0  0  0
 -154.6849 -242.2953   94.5248 C   0  0  0  0  0  0  0  0  0  0  0  0
 -155.3190 -241.5458   95.3386 O   0  0  0  0  0  0  0  0  0  0  0  0
 -154.5894 -243.6528   94.6328 N   0  0  0  0  0  0  0  0  0  0  0  0
 -153.8963 -244.4049   93.7259 C   0  0  0  0  0  0  0  0  0  0  0  0
 -153.7719 -245.7440   93.7935 N   0  0  0  0  0  0  0  0  0  0  0  0
 -153.2841 -243.8157   92.7093 N   0  0  0  0  0  0  0  0  0  0  0  0
 -153.3880 -242.4847   92.5480 C   0  0  0  0  0  0  0  0  0  0  0  0
  1  2  1  6
  1  3  1  0
  3  4  1  1
  5  4  1  6
  5  6  1  0
  6  7  1  0
  6 16  1  0
  7  8  2  0
  8  9  1  0
  9 10  1  0
  9 16  2  0
 10 11  2  0
 10 12  1  0
 12 13  1  0
 13 14  1  0
 13 15  2  0
 15 16  1  0
M  END
$$$$
