
     RDKit          3D

 16 17  0  0  0  0  0  0  0  0999 V2000
 -498.2812  175.9609  262.7783 C   0  0  0  0  0  0  0  0  0  0  0  0
 -498.6562  176.6262  261.5633 O   0  0  0  0  0  0  0  0  0  0  0  0
 -497.2292  174.9214  262.4587 C   0  0  0  0  0  0  0  0  0  0  0  0
 -497.9265  173.8917  261.7461 O   0  0  0  0  0  0  0  0  0  0  0  0
 -497.8361  173.9448  260.3042 C   0  0  0  0  0  0  0  0  0  0  0  0
 -497.4359  172.5712  260.0714 N   0  0  0  0  0  0  0  0  0  0  0  0
 -496.6972  171.7393  260.8069 C   0  0  0  0  0  0  0  0  0  0  0  0
 -496.6568  170.5370  260.1913 N   0  0  0  0  0  0  0  0  0  0  0  0
 -497.3842  170.6297  259.0598 C   0  0  0  0  0  0  0  0  0  0  0  0
 -497.6888  169.7478  258.0435 C   0  0  0  0  0  0  0  0  0  0  0  0
 -497.2263  168.5623  258.1264 O   0  0  0  0  0  0  0  0  0  0  0  0
 -498.4799  170.2034  257.0285 N   0  0  0  0  0  0  0  0  0  0  0  0
 -498.9489  171.4869  256.9954 C   0  0  0  0  0  0  0  0  0  0  0  0
 -499.7279  171.9809  256.0146 N   0  0  0  0  0  0  0  0  0  0  0  0
 -498.6294  172.3322  257.9642 N   0  0  0  0  0  0  0  0  0  0  0  0
 -497.8841  171.9089  259.0007 C   0  0  0  0  0  0  0  0  0  0  0  0
  1  2  1  6
  1  3  1  0
  3  4  1  1
  5  4  1  6
  5  6  1  0
  6  7  1  0
  6 16  1  0
  7  8  2  0
  8  9  1  0
  9 10  1  0
  9 16  2  0
 10 11  2  0
 10 12  1  0
 12 13  1  0
 13 14  1  0
 13 15  2  0
 15 16  1  0
M  END
$$$$
