
     RDKit          3D

 16 17  0  0  0  0  0  0  0  0999 V2000
 -514.3619  110.7326   74.7855 C   0  0  0  0  0  0  0  0  0  0  0  0
 -513.3631  109.7060   74.8744 O   0  0  0  0  0  0  0  0  0  0  0  0
 -515.5756  110.2999   75.5792 C   0  0  0  0  0  0  0  0  0  0  0  0
 -516.6813  110.4448   74.6787 O   0  0  0  0  0  0  0  0  0  0  0  0
 -516.5055  109.8762   73.3612 C   0  0  0  0  0  0  0  0  0  0  0  0
 -517.0834  110.9588   72.5897 N   0  0  0  0  0  0  0  0  0  0  0  0
 -518.0429  111.8337   72.8937 C   0  0  0  0  0  0  0  0  0  0  0  0
 -518.1872  112.6938   71.8615 N   0  0  0  0  0  0  0  0  0  0  0  0
 -517.3008  112.3437   70.9076 C   0  0  0  0  0  0  0  0  0  0  0  0
 -516.9999  112.8363   69.6545 C   0  0  0  0  0  0  0  0  0  0  0  0
 -517.6533  113.8504   69.2413 O   0  0  0  0  0  0  0  0  0  0  0  0
 -516.0098  112.2118   68.9520 N   0  0  0  0  0  0  0  0  0  0  0  0
 -515.3417  111.1279   69.4490 C   0  0  0  0  0  0  0  0  0  0  0  0
 -514.3622  110.4785   68.7919 N   0  0  0  0  0  0  0  0  0  0  0  0
 -515.6559  110.6486   70.6433 N   0  0  0  0  0  0  0  0  0  0  0  0
 -516.5995  111.2606   71.3814 C   0  0  0  0  0  0  0  0  0  0  0  0
  1  2  1  6
  1  3  1  0
  3  4  1  1
  5  4  1  6
  5  6  1  0
  6  7  1  0
  6 16  1  0
  7  8  2  0
  8  9  1  0
  9 10  1  0
  9 16  2  0
 10 11  2  0
 10 12  1  0
 12 13  1  0
 13 14  1  0
 13 15  2  0
 15 16  1  0
M  END
$$$$
