
     RDKit          3D

 16 17  0  0  0  0  0  0  0  0999 V2000
  137.9023  102.9030  178.4883 C   0  0  0  0  0  0  0  0  0  0  0  0
  138.7168  101.8484  179.0212 O   0  0  0  0  0  0  0  0  0  0  0  0
  138.6576  103.5807  177.3660 C   0  0  0  0  0  0  0  0  0  0  0  0
  137.6851  103.7890  176.3340 O   0  0  0  0  0  0  0  0  0  0  0  0
  137.4263  105.1651  175.9740 C   0  0  0  0  0  0  0  0  0  0  0  0
  137.9201  105.1187  174.6119 N   0  0  0  0  0  0  0  0  0  0  0  0
  138.4742  104.1251  173.9163 C   0  0  0  0  0  0  0  0  0  0  0  0
  138.7122  104.5575  172.6583 N   0  0  0  0  0  0  0  0  0  0  0  0
  138.2959  105.8376  172.5779 C   0  0  0  0  0  0  0  0  0  0  0  0
  138.2922  106.7807  171.5709 C   0  0  0  0  0  0  0  0  0  0  0  0
  138.7587  106.4390  170.4344 O   0  0  0  0  0  0  0  0  0  0  0  0
  137.7718  108.0095  171.8591 N   0  0  0  0  0  0  0  0  0  0  0  0
  137.2830  108.3170  173.0979 C   0  0  0  0  0  0  0  0  0  0  0  0
  136.7643  109.5147  173.4289 N   0  0  0  0  0  0  0  0  0  0  0  0
  137.3145  107.4112  174.0642 N   0  0  0  0  0  0  0  0  0  0  0  0
  137.7838  106.1773  173.8076 C   0  0  0  0  0  0  0  0  0  0  0  0
  1  2  1  6
  1  3  1  0
  3  4  1  1
  5  4  1  6
  5  6  1  0
  6  7  1  0
  6 16  1  0
  7  8  2  0
  8  9  1  0
  9 10  1  0
  9 16  2  0
 10 11  2  0
 10 12  1  0
 12 13  1  0
 13 14  1  0
 13 15  2  0
 15 16  1  0
M  END
$$$$
