
     RDKit          3D

 16 17  0  0  0  0  0  0  0  0999 V2000
  -82.0081  -95.7577   35.3082 C   0  0  0  0  0  0  0  0  0  0  0  0
  -81.5442  -94.9786   34.1958 O   0  0  0  0  0  0  0  0  0  0  0  0
  -82.9101  -94.8953   36.1635 C   0  0  0  0  0  0  0  0  0  0  0  0
  -82.4404  -93.5554   35.9681 O   0  0  0  0  0  0  0  0  0  0  0  0
  -83.1016  -92.7959   34.9307 C   0  0  0  0  0  0  0  0  0  0  0  0
  -82.6386  -91.4767   35.3133 N   0  0  0  0  0  0  0  0  0  0  0  0
  -81.4134  -91.0239   35.5818 C   0  0  0  0  0  0  0  0  0  0  0  0
  -81.4868  -89.6979   35.8312 N   0  0  0  0  0  0  0  0  0  0  0  0
  -82.7780  -89.3280   35.7122 C   0  0  0  0  0  0  0  0  0  0  0  0
  -83.4474  -88.1305   35.8584 C   0  0  0  0  0  0  0  0  0  0  0  0
  -82.7615  -87.0993   36.1619 O   0  0  0  0  0  0  0  0  0  0  0  0
  -84.7966  -88.1321   35.6502 N   0  0  0  0  0  0  0  0  0  0  0  0
  -85.4781  -89.2711   35.3238 C   0  0  0  0  0  0  0  0  0  0  0  0
  -86.8070  -89.3214   35.1129 N   0  0  0  0  0  0  0  0  0  0  0  0
  -84.8285  -90.4202   35.2104 N   0  0  0  0  0  0  0  0  0  0  0  0
  -83.4935  -90.4509   35.3700 C   0  0  0  0  0  0  0  0  0  0  0  0
  1  2  1  6
  1  3  1  0
  3  4  1  1
  5  4  1  6
  5  6  1  0
  6  7  1  0
  6 16  1  0
  7  8  2  0
  8  9  1  0
  9 10  1  0
  9 16  2  0
 10 11  2  0
 10 12  1  0
 12 13  1  0
 13 14  1  0
 13 15  2  0
 15 16  1  0
M  END
$$$$
