
     RDKit          3D

 16 17  0  0  0  0  0  0  0  0999 V2000
  218.6419  565.7341  107.4575 C   0  0  0  0  0  0  0  0  0  0  0  0
  219.4025  566.8409  106.9518 O   0  0  0  0  0  0  0  0  0  0  0  0
  218.2316  566.0366  108.8821 C   0  0  0  0  0  0  0  0  0  0  0  0
  216.8196  566.2741  108.8212 O   0  0  0  0  0  0  0  0  0  0  0  0
  216.3774  567.2198  107.8210 C   0  0  0  0  0  0  0  0  0  0  0  0
  217.1077  568.3788  108.2949 N   0  0  0  0  0  0  0  0  0  0  0  0
  218.1181  568.4816  109.1592 C   0  0  0  0  0  0  0  0  0  0  0  0
  218.4997  569.7767  109.2267 N   0  0  0  0  0  0  0  0  0  0  0  0
  217.7128  570.4813  108.3882 C   0  0  0  0  0  0  0  0  0  0  0  0
  217.6285  571.8163  108.0511 C   0  0  0  0  0  0  0  0  0  0  0  0
  218.4480  572.6222  108.6037 O   0  0  0  0  0  0  0  0  0  0  0  0
  216.6832  572.1777  107.1347 N   0  0  0  0  0  0  0  0  0  0  0  0
  215.8328  571.2665  106.5734 C   0  0  0  0  0  0  0  0  0  0  0  0
  214.8840  571.5760  105.6696 N   0  0  0  0  0  0  0  0  0  0  0  0
  215.9066  569.9904  106.9233 N   0  0  0  0  0  0  0  0  0  0  0  0
  216.8506  569.5909  107.7941 C   0  0  0  0  0  0  0  0  0  0  0  0
  1  2  1  6
  1  3  1  0
  3  4  1  1
  5  4  1  6
  5  6  1  0
  6  7  1  0
  6 16  1  0
  7  8  2  0
  8  9  1  0
  9 10  1  0
  9 16  2  0
 10 11  2  0
 10 12  1  0
 12 13  1  0
 13 14  1  0
 13 15  2  0
 15 16  1  0
M  END
$$$$
