
     RDKit          3D

 16 17  0  0  0  0  0  0  0  0999 V2000
   -3.1242  143.1215   92.6291 C   0  0  0  0  0  0  0  0  0  0  0  0
   -4.0789  142.1015   92.9570 O   0  0  0  0  0  0  0  0  0  0  0  0
   -1.7317  142.5759   92.8576 C   0  0  0  0  0  0  0  0  0  0  0  0
   -0.9025  143.2602   91.9099 O   0  0  0  0  0  0  0  0  0  0  0  0
   -0.4087  142.4652   90.8079 C   0  0  0  0  0  0  0  0  0  0  0  0
   -1.5754  142.5509   89.9520 N   0  0  0  0  0  0  0  0  0  0  0  0
   -2.8472  142.2156   90.1717 C   0  0  0  0  0  0  0  0  0  0  0  0
   -3.5761  142.5444   89.0822 N   0  0  0  0  0  0  0  0  0  0  0  0
   -2.7395  143.0930   88.1782 C   0  0  0  0  0  0  0  0  0  0  0  0
   -2.9047  143.5974   86.9047 C   0  0  0  0  0  0  0  0  0  0  0  0
   -4.0794  143.5867   86.4087 O   0  0  0  0  0  0  0  0  0  0  0  0
   -1.7992  144.0889   86.2722 N   0  0  0  0  0  0  0  0  0  0  0  0
   -0.5638  144.0756   86.8571 C   0  0  0  0  0  0  0  0  0  0  0  0
    0.5539  144.5452   86.2711 N   0  0  0  0  0  0  0  0  0  0  0  0
   -0.4127  143.5661   88.0706 N   0  0  0  0  0  0  0  0  0  0  0  0
   -1.4851  143.1079   88.7406 C   0  0  0  0  0  0  0  0  0  0  0  0
  1  2  1  6
  1  3  1  0
  3  4  1  1
  5  4  1  6
  5  6  1  0
  6  7  1  0
  6 16  1  0
  7  8  2  0
  8  9  1  0
  9 10  1  0
  9 16  2  0
 10 11  2  0
 10 12  1  0
 12 13  1  0
 13 14  1  0
 13 15  2  0
 15 16  1  0
M  END
$$$$
