
     RDKit          3D

 16 17  0  0  0  0  0  0  0  0999 V2000
  417.8572  143.6544 -281.8394 C   0  0  0  0  0  0  0  0  0  0  0  0
  419.2196  143.6425 -282.2896 O   0  0  0  0  0  0  0  0  0  0  0  0
  417.2528  145.0052 -282.1546 C   0  0  0  0  0  0  0  0  0  0  0  0
  416.1212  144.7229 -282.9872 O   0  0  0  0  0  0  0  0  0  0  0  0
  416.2521  143.5879 -283.8732 C   0  0  0  0  0  0  0  0  0  0  0  0
  415.4263  142.6529 -283.1352 N   0  0  0  0  0  0  0  0  0  0  0  0
  414.9341  142.7096 -281.8973 C   0  0  0  0  0  0  0  0  0  0  0  0
  414.1672  141.6174 -281.6855 N   0  0  0  0  0  0  0  0  0  0  0  0
  414.1860  140.8773 -282.8126 C   0  0  0  0  0  0  0  0  0  0  0  0
  413.6107  139.6782 -283.1793 C   0  0  0  0  0  0  0  0  0  0  0  0
  412.8777  139.0835 -282.3216 O   0  0  0  0  0  0  0  0  0  0  0  0
  413.8537  139.2216 -284.4427 N   0  0  0  0  0  0  0  0  0  0  0  0
  414.6476  139.9057 -285.3200 C   0  0  0  0  0  0  0  0  0  0  0  0
  414.9182  139.4931 -286.5729 N   0  0  0  0  0  0  0  0  0  0  0  0
  415.2150  141.0438 -284.9486 N   0  0  0  0  0  0  0  0  0  0  0  0
  414.9677  141.5449 -283.7253 C   0  0  0  0  0  0  0  0  0  0  0  0
  1  2  1  6
  1  3  1  0
  3  4  1  1
  5  4  1  6
  5  6  1  0
  6  7  1  0
  6 16  1  0
  7  8  2  0
  8  9  1  0
  9 10  1  0
  9 16  2  0
 10 11  2  0
 10 12  1  0
 12 13  1  0
 13 14  1  0
 13 15  2  0
 15 16  1  0
M  END
$$$$
