
     RDKit          3D

 16 17  0  0  0  0  0  0  0  0999 V2000
 -389.2692 -376.7633 -289.2335 C   0  0  0  0  0  0  0  0  0  0  0  0
 -390.6730 -376.9581 -289.0077 O   0  0  0  0  0  0  0  0  0  0  0  0
 -388.5378 -376.9276 -287.9195 C   0  0  0  0  0  0  0  0  0  0  0  0
 -388.3267 -378.3385 -287.7834 O   0  0  0  0  0  0  0  0  0  0  0  0
 -387.0242 -378.8264 -288.1785 C   0  0  0  0  0  0  0  0  0  0  0  0
 -387.3672 -380.2260 -288.3373 N   0  0  0  0  0  0  0  0  0  0  0  0
 -388.2643 -380.8224 -289.1231 C   0  0  0  0  0  0  0  0  0  0  0  0
 -388.1659 -382.1597 -288.9551 N   0  0  0  0  0  0  0  0  0  0  0  0
 -387.1908 -382.3901 -288.0527 C   0  0  0  0  0  0  0  0  0  0  0  0
 -386.6599 -383.5316 -287.4883 C   0  0  0  0  0  0  0  0  0  0  0  0
 -387.1368 -384.6548 -287.8583 O   0  0  0  0  0  0  0  0  0  0  0  0
 -385.6482 -383.3773 -286.5848 N   0  0  0  0  0  0  0  0  0  0  0  0
 -385.1761 -382.1448 -286.2290 C   0  0  0  0  0  0  0  0  0  0  0  0
 -384.1843 -381.9438 -285.3409 N   0  0  0  0  0  0  0  0  0  0  0  0
 -385.7106 -381.0544 -286.7588 N   0  0  0  0  0  0  0  0  0  0  0  0
 -386.6825 -381.1680 -287.6812 C   0  0  0  0  0  0  0  0  0  0  0  0
  1  2  1  6
  1  3  1  0
  3  4  1  1
  5  4  1  6
  5  6  1  0
  6  7  1  0
  6 16  1  0
  7  8  2  0
  8  9  1  0
  9 10  1  0
  9 16  2  0
 10 11  2  0
 10 12  1  0
 12 13  1  0
 13 14  1  0
 13 15  2  0
 15 16  1  0
M  END
$$$$
