
     RDKit          3D

 16 17  0  0  0  0  0  0  0  0999 V2000
  776.9769  335.5352  -54.3870 C   0  0  0  0  0  0  0  0  0  0  0  0
  777.2441  335.8754  -55.7551 O   0  0  0  0  0  0  0  0  0  0  0  0
  776.7371  336.8092  -53.6067 C   0  0  0  0  0  0  0  0  0  0  0  0
  777.6073  337.7802  -54.2016 O   0  0  0  0  0  0  0  0  0  0  0  0
  778.5986  338.3653  -53.3266 C   0  0  0  0  0  0  0  0  0  0  0  0
  778.3480  339.7597  -53.6337 N   0  0  0  0  0  0  0  0  0  0  0  0
  777.7638  340.3317  -54.6871 C   0  0  0  0  0  0  0  0  0  0  0  0
  777.7117  341.6663  -54.4818 N   0  0  0  0  0  0  0  0  0  0  0  0
  778.2706  341.9196  -53.2814 C   0  0  0  0  0  0  0  0  0  0  0  0
  778.5048  343.0714  -52.5589 C   0  0  0  0  0  0  0  0  0  0  0  0
  778.1282  344.1788  -53.0669 O   0  0  0  0  0  0  0  0  0  0  0  0
  779.1082  342.9416  -51.3411 N   0  0  0  0  0  0  0  0  0  0  0  0
  779.4875  341.7248  -50.8469 C   0  0  0  0  0  0  0  0  0  0  0  0
  780.0881  341.5487  -49.6547 N   0  0  0  0  0  0  0  0  0  0  0  0
  779.2805  340.6281  -51.5604 N   0  0  0  0  0  0  0  0  0  0  0  0
  778.6541  340.7121  -52.7474 C   0  0  0  0  0  0  0  0  0  0  0  0
  1  2  1  6
  1  3  1  0
  3  4  1  1
  5  4  1  6
  5  6  1  0
  6  7  1  0
  6 16  1  0
  7  8  2  0
  8  9  1  0
  9 10  1  0
  9 16  2  0
 10 11  2  0
 10 12  1  0
 12 13  1  0
 13 14  1  0
 13 15  2  0
 15 16  1  0
M  END
$$$$
