
     RDKit          3D

 16 17  0  0  0  0  0  0  0  0999 V2000
 -120.9617    0.1992  -72.6453 C   0  0  0  0  0  0  0  0  0  0  0  0
 -121.4588    1.2662  -71.8243 O   0  0  0  0  0  0  0  0  0  0  0  0
 -119.5051   -0.0346  -72.3094 C   0  0  0  0  0  0  0  0  0  0  0  0
 -118.9918    1.2558  -71.9556 O   0  0  0  0  0  0  0  0  0  0  0  0
 -118.2135    1.3175  -70.7386 C   0  0  0  0  0  0  0  0  0  0  0  0
 -116.8934    1.2603  -71.3344 N   0  0  0  0  0  0  0  0  0  0  0  0
 -115.8861    0.4068  -71.1472 C   0  0  0  0  0  0  0  0  0  0  0  0
 -114.8780    0.7364  -71.9845 N   0  0  0  0  0  0  0  0  0  0  0  0
 -115.2721    1.8090  -72.7002 C   0  0  0  0  0  0  0  0  0  0  0  0
 -114.6760    2.5776  -73.6787 C   0  0  0  0  0  0  0  0  0  0  0  0
 -113.4976    2.2603  -74.0485 O   0  0  0  0  0  0  0  0  0  0  0  0
 -115.3988    3.6146  -74.1944 N   0  0  0  0  0  0  0  0  0  0  0  0
 -116.6614    3.9052  -73.7587 C   0  0  0  0  0  0  0  0  0  0  0  0
 -117.4096    4.9185  -74.2345 N   0  0  0  0  0  0  0  0  0  0  0  0
 -117.2142    3.1755  -72.8011 N   0  0  0  0  0  0  0  0  0  0  0  0
 -116.5482    2.1219  -72.2958 C   0  0  0  0  0  0  0  0  0  0  0  0
  1  2  1  6
  1  3  1  0
  3  4  1  1
  5  4  1  6
  5  6  1  0
  6  7  1  0
  6 16  1  0
  7  8  2  0
  8  9  1  0
  9 10  1  0
  9 16  2  0
 10 11  2  0
 10 12  1  0
 12 13  1  0
 13 14  1  0
 13 15  2  0
 15 16  1  0
M  END
$$$$
