
     RDKit          3D

 16 17  0  0  0  0  0  0  0  0999 V2000
 -258.3179  411.0392 -199.2443 C   0  0  0  0  0  0  0  0  0  0  0  0
 -259.2566  410.8452 -200.3120 O   0  0  0  0  0  0  0  0  0  0  0  0
 -256.9171  410.8769 -199.7924 C   0  0  0  0  0  0  0  0  0  0  0  0
 -256.7155  409.4613 -199.8889 O   0  0  0  0  0  0  0  0  0  0  0  0
 -255.3980  408.9822 -199.5360 C   0  0  0  0  0  0  0  0  0  0  0  0
 -254.9024  410.1878 -198.9020 N   0  0  0  0  0  0  0  0  0  0  0  0
 -254.9835  411.4665 -199.2716 C   0  0  0  0  0  0  0  0  0  0  0  0
 -254.4185  412.2313 -198.3118 N   0  0  0  0  0  0  0  0  0  0  0  0
 -253.9844  411.4100 -197.3341 C   0  0  0  0  0  0  0  0  0  0  0  0
 -253.3334  411.6115 -196.1347 C   0  0  0  0  0  0  0  0  0  0  0  0
 -253.0560  412.8112 -195.8027 O   0  0  0  0  0  0  0  0  0  0  0  0
 -253.0477  410.5110 -195.3790 N   0  0  0  0  0  0  0  0  0  0  0  0
 -253.3725  409.2476 -195.7872 C   0  0  0  0  0  0  0  0  0  0  0  0
 -253.1077  408.1339 -195.0784 N   0  0  0  0  0  0  0  0  0  0  0  0
 -253.9754  409.0642 -196.9526 N   0  0  0  0  0  0  0  0  0  0  0  0
 -254.3080  410.1270 -197.7066 C   0  0  0  0  0  0  0  0  0  0  0  0
  1  2  1  6
  1  3  1  0
  3  4  1  1
  5  4  1  6
  5  6  1  0
  6  7  1  0
  6 16  1  0
  7  8  2  0
  8  9  1  0
  9 10  1  0
  9 16  2  0
 10 11  2  0
 10 12  1  0
 12 13  1  0
 13 14  1  0
 13 15  2  0
 15 16  1  0
M  END
$$$$
