
     RDKit          3D

 16 17  0  0  0  0  0  0  0  0999 V2000
  180.1132  155.6233   14.3196 C   0  0  0  0  0  0  0  0  0  0  0  0
  181.4039  155.0568   14.0497 O   0  0  0  0  0  0  0  0  0  0  0  0
  180.0720  156.0736   15.7633 C   0  0  0  0  0  0  0  0  0  0  0  0
  178.7904  156.6942   15.9244 O   0  0  0  0  0  0  0  0  0  0  0  0
  178.7846  158.1397   15.9577 C   0  0  0  0  0  0  0  0  0  0  0  0
  179.3947  158.3189   17.2603 N   0  0  0  0  0  0  0  0  0  0  0  0
  179.1436  157.7327   18.4314 C   0  0  0  0  0  0  0  0  0  0  0  0
  180.0259  158.1944   19.3448 N   0  0  0  0  0  0  0  0  0  0  0  0
  180.8349  159.0775   18.7252 C   0  0  0  0  0  0  0  0  0  0  0  0
  181.8930  159.8597   19.1398 C   0  0  0  0  0  0  0  0  0  0  0  0
  182.2507  159.7772   20.3610 O   0  0  0  0  0  0  0  0  0  0  0  0
  182.4937  160.6549   18.2067 N   0  0  0  0  0  0  0  0  0  0  0  0
  182.0664  160.6991   16.9091 C   0  0  0  0  0  0  0  0  0  0  0  0
  182.6247  161.4696   15.9564 N   0  0  0  0  0  0  0  0  0  0  0  0
  181.0334  159.9622   16.5281 N   0  0  0  0  0  0  0  0  0  0  0  0
  180.4405  159.1374   17.4095 C   0  0  0  0  0  0  0  0  0  0  0  0
  1  2  1  6
  1  3  1  0
  3  4  1  1
  5  4  1  6
  5  6  1  0
  6  7  1  0
  6 16  1  0
  7  8  2  0
  8  9  1  0
  9 10  1  0
  9 16  2  0
 10 11  2  0
 10 12  1  0
 12 13  1  0
 13 14  1  0
 13 15  2  0
 15 16  1  0
M  END
$$$$
