
     RDKit          3D

 16 17  0  0  0  0  0  0  0  0999 V2000
 -622.4510  155.3234   64.8448 C   0  0  0  0  0  0  0  0  0  0  0  0
 -621.6716  154.1428   65.0862 O   0  0  0  0  0  0  0  0  0  0  0  0
 -621.6817  156.5251   65.3474 C   0  0  0  0  0  0  0  0  0  0  0  0
 -621.7839  156.4634   66.7756 O   0  0  0  0  0  0  0  0  0  0  0  0
 -622.9327  155.7590   67.2999 C   0  0  0  0  0  0  0  0  0  0  0  0
 -623.9041  156.8275   67.1780 N   0  0  0  0  0  0  0  0  0  0  0  0
 -625.0023  157.0958   67.8856 C   0  0  0  0  0  0  0  0  0  0  0  0
 -625.5456  158.2434   67.4234 N   0  0  0  0  0  0  0  0  0  0  0  0
 -624.7680  158.6901   66.4163 C   0  0  0  0  0  0  0  0  0  0  0  0
 -624.8254  159.7826   65.5758 C   0  0  0  0  0  0  0  0  0  0  0  0
 -625.7905  160.6015   65.7302 O   0  0  0  0  0  0  0  0  0  0  0  0
 -623.8331  159.9182   64.6482 N   0  0  0  0  0  0  0  0  0  0  0  0
 -622.8209  159.0070   64.5316 C   0  0  0  0  0  0  0  0  0  0  0  0
 -621.8237  159.0974   63.6309 N   0  0  0  0  0  0  0  0  0  0  0  0
 -622.7896  157.9486   65.3279 N   0  0  0  0  0  0  0  0  0  0  0  0
 -623.7284  157.8011   66.2794 C   0  0  0  0  0  0  0  0  0  0  0  0
  1  2  1  6
  1  3  1  0
  3  4  1  1
  5  4  1  6
  5  6  1  0
  6  7  1  0
  6 16  1  0
  7  8  2  0
  8  9  1  0
  9 10  1  0
  9 16  2  0
 10 11  2  0
 10 12  1  0
 12 13  1  0
 13 14  1  0
 13 15  2  0
 15 16  1  0
M  END
$$$$
