
     RDKit          3D

 16 17  0  0  0  0  0  0  0  0999 V2000
  -10.2045  344.3484  315.8540 C   0  0  0  0  0  0  0  0  0  0  0  0
  -10.5115  344.8846  317.1493 O   0  0  0  0  0  0  0  0  0  0  0  0
   -8.9916  345.0671  315.3051 C   0  0  0  0  0  0  0  0  0  0  0  0
   -9.2856  345.2915  313.9205 O   0  0  0  0  0  0  0  0  0  0  0  0
   -9.2766  346.6703  313.4848 C   0  0  0  0  0  0  0  0  0  0  0  0
   -9.9186  347.2574  314.6442 N   0  0  0  0  0  0  0  0  0  0  0  0
  -10.2843  346.7182  315.8077 C   0  0  0  0  0  0  0  0  0  0  0  0
  -10.7918  347.6915  316.5956 N   0  0  0  0  0  0  0  0  0  0  0  0
  -10.7356  348.8493  315.9067 C   0  0  0  0  0  0  0  0  0  0  0  0
  -11.1102  350.1476  316.1852 C   0  0  0  0  0  0  0  0  0  0  0  0
  -11.6198  350.3866  317.3296 O   0  0  0  0  0  0  0  0  0  0  0  0
  -10.8921  351.0884  315.2203 N   0  0  0  0  0  0  0  0  0  0  0  0
  -10.3387  350.7716  314.0115 C   0  0  0  0  0  0  0  0  0  0  0  0
  -10.1084  351.6638  313.0295 N   0  0  0  0  0  0  0  0  0  0  0  0
  -10.0056  349.5173  313.7455 N   0  0  0  0  0  0  0  0  0  0  0  0
  -10.1696  348.5694  314.6854 C   0  0  0  0  0  0  0  0  0  0  0  0
  1  2  1  6
  1  3  1  0
  3  4  1  1
  5  4  1  6
  5  6  1  0
  6  7  1  0
  6 16  1  0
  7  8  2  0
  8  9  1  0
  9 10  1  0
  9 16  2  0
 10 11  2  0
 10 12  1  0
 12 13  1  0
 13 14  1  0
 13 15  2  0
 15 16  1  0
M  END
$$$$
