
     RDKit          3D

 16 17  0  0  0  0  0  0  0  0999 V2000
  -97.6852 -158.7213  -66.2345 C   0  0  0  0  0  0  0  0  0  0  0  0
  -98.2161 -159.3330  -67.4193 O   0  0  0  0  0  0  0  0  0  0  0  0
  -96.1805 -158.6327  -66.3656 C   0  0  0  0  0  0  0  0  0  0  0  0
  -95.7103 -159.9741  -66.1821 O   0  0  0  0  0  0  0  0  0  0  0  0
  -95.4820 -160.7374  -67.3885 C   0  0  0  0  0  0  0  0  0  0  0  0
  -96.8564 -161.1089  -67.6612 N   0  0  0  0  0  0  0  0  0  0  0  0
  -97.9795 -160.3909  -67.6253 C   0  0  0  0  0  0  0  0  0  0  0  0
  -99.0067 -161.1736  -68.0231 N   0  0  0  0  0  0  0  0  0  0  0  0
  -98.5073 -162.3926  -68.3107 C   0  0  0  0  0  0  0  0  0  0  0  0
  -99.0658 -163.5771  -68.7444 C   0  0  0  0  0  0  0  0  0  0  0  0
 -100.3239 -163.6007  -68.9512 O   0  0  0  0  0  0  0  0  0  0  0  0
  -98.2271 -164.6368  -68.9382 N   0  0  0  0  0  0  0  0  0  0  0  0
  -96.8837 -164.5504  -68.7014 C   0  0  0  0  0  0  0  0  0  0  0  0
  -96.0196 -165.5684  -68.8747 N   0  0  0  0  0  0  0  0  0  0  0  0
  -96.3621 -163.4148  -68.2613 N   0  0  0  0  0  0  0  0  0  0  0  0
  -97.1505 -162.3380  -68.0956 C   0  0  0  0  0  0  0  0  0  0  0  0
  1  2  1  6
  1  3  1  0
  3  4  1  1
  5  4  1  6
  5  6  1  0
  6  7  1  0
  6 16  1  0
  7  8  2  0
  8  9  1  0
  9 10  1  0
  9 16  2  0
 10 11  2  0
 10 12  1  0
 12 13  1  0
 13 14  1  0
 13 15  2  0
 15 16  1  0
M  END
$$$$
