
     RDKit          3D

 16 17  0  0  0  0  0  0  0  0999 V2000
   60.4555  -58.4372  106.2710 C   0  0  0  0  0  0  0  0  0  0  0  0
   61.7202  -58.7317  106.8818 O   0  0  0  0  0  0  0  0  0  0  0  0
   59.9876  -57.0810  106.7514 C   0  0  0  0  0  0  0  0  0  0  0  0
   60.4895  -56.9651  108.0888 O   0  0  0  0  0  0  0  0  0  0  0  0
   59.6833  -56.1892  109.0044 C   0  0  0  0  0  0  0  0  0  0  0  0
   59.8560  -57.0154  110.1829 N   0  0  0  0  0  0  0  0  0  0  0  0
   59.2909  -56.9472  111.3888 C   0  0  0  0  0  0  0  0  0  0  0  0
   59.7327  -57.9848  112.1333 N   0  0  0  0  0  0  0  0  0  0  0  0
   60.5819  -58.7046  111.3724 C   0  0  0  0  0  0  0  0  0  0  0  0
   61.3330  -59.8411  111.5908 C   0  0  0  0  0  0  0  0  0  0  0  0
   61.2516  -60.3968  112.7356 O   0  0  0  0  0  0  0  0  0  0  0  0
   62.0979  -60.3003  110.5574 N   0  0  0  0  0  0  0  0  0  0  0  0
   62.1427  -59.6619  109.3496 C   0  0  0  0  0  0  0  0  0  0  0  0
   62.8841  -60.0752  108.3043 N   0  0  0  0  0  0  0  0  0  0  0  0
   61.4363  -58.5573  109.1594 N   0  0  0  0  0  0  0  0  0  0  0  0
   60.6409  -58.0962  110.1411 C   0  0  0  0  0  0  0  0  0  0  0  0
  1  2  1  6
  1  3  1  0
  3  4  1  1
  5  4  1  6
  5  6  1  0
  6  7  1  0
  6 16  1  0
  7  8  2  0
  8  9  1  0
  9 10  1  0
  9 16  2  0
 10 11  2  0
 10 12  1  0
 12 13  1  0
 13 14  1  0
 13 15  2  0
 15 16  1  0
M  END
$$$$
