
     RDKit          3D

 16 17  0  0  0  0  0  0  0  0999 V2000
 -129.1907  -53.1272 -298.8005 C   0  0  0  0  0  0  0  0  0  0  0  0
 -130.2063  -54.1406 -298.7750 O   0  0  0  0  0  0  0  0  0  0  0  0
 -127.8876  -53.7559 -299.2433 C   0  0  0  0  0  0  0  0  0  0  0  0
 -126.9723  -52.6615 -299.3788 O   0  0  0  0  0  0  0  0  0  0  0  0
 -127.4083  -51.5697 -300.2204 C   0  0  0  0  0  0  0  0  0  0  0  0
 -126.1703  -50.8160 -300.2394 N   0  0  0  0  0  0  0  0  0  0  0  0
 -125.5545  -50.1221 -299.2816 C   0  0  0  0  0  0  0  0  0  0  0  0
 -124.3891  -49.6462 -299.7727 N   0  0  0  0  0  0  0  0  0  0  0  0
 -124.2849  -50.0555 -301.0533 C   0  0  0  0  0  0  0  0  0  0  0  0
 -123.3401  -49.8731 -302.0420 C   0  0  0  0  0  0  0  0  0  0  0  0
 -122.3044  -49.1866 -301.7552 O   0  0  0  0  0  0  0  0  0  0  0  0
 -123.5740  -50.4565 -303.2539 N   0  0  0  0  0  0  0  0  0  0  0  0
 -124.7040  -51.1845 -303.5015 C   0  0  0  0  0  0  0  0  0  0  0  0
 -124.9787  -51.7744 -304.6803 N   0  0  0  0  0  0  0  0  0  0  0  0
 -125.6161  -51.3323 -302.5521 N   0  0  0  0  0  0  0  0  0  0  0  0
 -125.4027  -50.8050 -301.3335 C   0  0  0  0  0  0  0  0  0  0  0  0
  1  2  1  6
  1  3  1  0
  3  4  1  1
  5  4  1  6
  5  6  1  0
  6  7  1  0
  6 16  1  0
  7  8  2  0
  8  9  1  0
  9 10  1  0
  9 16  2  0
 10 11  2  0
 10 12  1  0
 12 13  1  0
 13 14  1  0
 13 15  2  0
 15 16  1  0
M  END
$$$$
