
     RDKit          3D

 16 17  0  0  0  0  0  0  0  0999 V2000
  -44.9162 -111.8595   55.1593 C   0  0  0  0  0  0  0  0  0  0  0  0
  -45.5793 -112.6053   56.1907 O   0  0  0  0  0  0  0  0  0  0  0  0
  -44.9712 -110.3890   55.5106 C   0  0  0  0  0  0  0  0  0  0  0  0
  -46.1372 -110.2445   56.3313 O   0  0  0  0  0  0  0  0  0  0  0  0
  -46.4205 -111.3407   57.2304 C   0  0  0  0  0  0  0  0  0  0  0  0
  -45.7924 -110.8002   58.4197 N   0  0  0  0  0  0  0  0  0  0  0  0
  -45.4099 -111.3916   59.5520 C   0  0  0  0  0  0  0  0  0  0  0  0
  -44.8133 -110.4712   60.3413 N   0  0  0  0  0  0  0  0  0  0  0  0
  -44.8270 -109.2944   59.6830 C   0  0  0  0  0  0  0  0  0  0  0  0
  -44.3818 -108.0241   59.9853 C   0  0  0  0  0  0  0  0  0  0  0  0
  -43.8119 -107.8462   61.1122 O   0  0  0  0  0  0  0  0  0  0  0  0
  -44.5681 -107.0500   59.0471 N   0  0  0  0  0  0  0  0  0  0  0  0
  -45.1848 -107.3020   57.8536 C   0  0  0  0  0  0  0  0  0  0  0  0
  -45.3934 -106.3736   56.9009 N   0  0  0  0  0  0  0  0  0  0  0  0
  -45.6304 -108.5202   57.5844 N   0  0  0  0  0  0  0  0  0  0  0  0
  -45.4307 -109.5145   58.4677 C   0  0  0  0  0  0  0  0  0  0  0  0
  1  2  1  6
  1  3  1  0
  3  4  1  1
  5  4  1  6
  5  6  1  0
  6  7  1  0
  6 16  1  0
  7  8  2  0
  8  9  1  0
  9 10  1  0
  9 16  2  0
 10 11  2  0
 10 12  1  0
 12 13  1  0
 13 14  1  0
 13 15  2  0
 15 16  1  0
M  END
$$$$
