
     RDKit          3D

 16 17  0  0  0  0  0  0  0  0999 V2000
  -54.6112  203.8949  148.3714 C   0  0  0  0  0  0  0  0  0  0  0  0
  -54.7731  205.2419  147.9036 O   0  0  0  0  0  0  0  0  0  0  0  0
  -55.7861  203.5433  149.2575 C   0  0  0  0  0  0  0  0  0  0  0  0
  -55.8083  204.5590  150.2684 O   0  0  0  0  0  0  0  0  0  0  0  0
  -57.0971  204.8351  150.8627 C   0  0  0  0  0  0  0  0  0  0  0  0
  -57.5475  205.8414  149.9216 N   0  0  0  0  0  0  0  0  0  0  0  0
  -58.7560  206.3653  149.7138 C   0  0  0  0  0  0  0  0  0  0  0  0
  -58.6563  207.3201  148.7627 N   0  0  0  0  0  0  0  0  0  0  0  0
  -57.3647  207.3864  148.3805 C   0  0  0  0  0  0  0  0  0  0  0  0
  -56.6782  208.1482  147.4576 C   0  0  0  0  0  0  0  0  0  0  0  0
  -57.3391  209.0081  146.7870 O   0  0  0  0  0  0  0  0  0  0  0  0
  -55.3343  207.9385  147.3409 N   0  0  0  0  0  0  0  0  0  0  0  0
  -54.6791  207.0020  148.0906 C   0  0  0  0  0  0  0  0  0  0  0  0
  -53.3576  206.7580  148.0073 N   0  0  0  0  0  0  0  0  0  0  0  0
  -55.3531  206.2590  148.9559 N   0  0  0  0  0  0  0  0  0  0  0  0
  -56.6714  206.4633  149.1269 C   0  0  0  0  0  0  0  0  0  0  0  0
  1  2  1  6
  1  3  1  0
  3  4  1  1
  5  4  1  6
  5  6  1  0
  6  7  1  0
  6 16  1  0
  7  8  2  0
  8  9  1  0
  9 10  1  0
  9 16  2  0
 10 11  2  0
 10 12  1  0
 12 13  1  0
 13 14  1  0
 13 15  2  0
 15 16  1  0
M  END
$$$$
