
     RDKit          3D

 16 17  0  0  0  0  0  0  0  0999 V2000
  288.0260  545.3331  -58.7893 C   0  0  0  0  0  0  0  0  0  0  0  0
  288.1559  546.1983  -59.9270 O   0  0  0  0  0  0  0  0  0  0  0  0
  289.3094  545.3850  -57.9899 C   0  0  0  0  0  0  0  0  0  0  0  0
  288.9053  545.7219  -56.6567 O   0  0  0  0  0  0  0  0  0  0  0  0
  287.6889  546.4940  -56.5381 C   0  0  0  0  0  0  0  0  0  0  0  0
  288.1468  547.4509  -55.5503 N   0  0  0  0  0  0  0  0  0  0  0  0
  288.8884  547.2884  -54.4541 C   0  0  0  0  0  0  0  0  0  0  0  0
  289.0993  548.4985  -53.8907 N   0  0  0  0  0  0  0  0  0  0  0  0
  288.4791  549.4211  -54.6540 C   0  0  0  0  0  0  0  0  0  0  0  0
  288.3396  550.7911  -54.5745 C   0  0  0  0  0  0  0  0  0  0  0  0
  288.9014  551.3904  -53.5989 O   0  0  0  0  0  0  0  0  0  0  0  0
  287.6238  551.4110  -55.5578 N   0  0  0  0  0  0  0  0  0  0  0  0
  287.0458  550.7143  -56.5820 C   0  0  0  0  0  0  0  0  0  0  0  0
  286.3287  551.2816  -57.5707 N   0  0  0  0  0  0  0  0  0  0  0  0
  287.1653  549.3961  -56.6345 N   0  0  0  0  0  0  0  0  0  0  0  0
  287.8957  548.7544  -55.7053 C   0  0  0  0  0  0  0  0  0  0  0  0
  1  2  1  6
  1  3  1  0
  3  4  1  1
  5  4  1  6
  5  6  1  0
  6  7  1  0
  6 16  1  0
  7  8  2  0
  8  9  1  0
  9 10  1  0
  9 16  2  0
 10 11  2  0
 10 12  1  0
 12 13  1  0
 13 14  1  0
 13 15  2  0
 15 16  1  0
M  END
$$$$
