
     RDKit          3D

 16 17  0  0  0  0  0  0  0  0999 V2000
  334.3008   49.1338 -496.4762 C   0  0  0  0  0  0  0  0  0  0  0  0
  333.9529   48.2751 -495.3806 O   0  0  0  0  0  0  0  0  0  0  0  0
  334.0544   50.5694 -496.0664 C   0  0  0  0  0  0  0  0  0  0  0  0
  334.1215   51.3220 -497.2841 O   0  0  0  0  0  0  0  0  0  0  0  0
  332.8997   51.9782 -497.6930 C   0  0  0  0  0  0  0  0  0  0  0  0
  332.3010   52.1351 -496.3822 N   0  0  0  0  0  0  0  0  0  0  0  0
  332.8102   52.5918 -495.2374 C   0  0  0  0  0  0  0  0  0  0  0  0
  331.8342   52.6023 -494.3030 N   0  0  0  0  0  0  0  0  0  0  0  0
  330.7051   52.1466 -494.8827 C   0  0  0  0  0  0  0  0  0  0  0  0
  329.4193   51.9294 -494.4325 C   0  0  0  0  0  0  0  0  0  0  0  0
  329.1607   52.2063 -493.2149 O   0  0  0  0  0  0  0  0  0  0  0  0
  328.5092   51.4491 -495.3296 N   0  0  0  0  0  0  0  0  0  0  0  0
  328.8453   51.1728 -496.6254 C   0  0  0  0  0  0  0  0  0  0  0  0
  327.9837   50.6950 -497.5434 N   0  0  0  0  0  0  0  0  0  0  0  0
  330.0895   51.3618 -497.0399 N   0  0  0  0  0  0  0  0  0  0  0  0
  331.0044   51.8704 -496.1958 C   0  0  0  0  0  0  0  0  0  0  0  0
  1  2  1  6
  1  3  1  0
  3  4  1  1
  5  4  1  6
  5  6  1  0
  6  7  1  0
  6 16  1  0
  7  8  2  0
  8  9  1  0
  9 10  1  0
  9 16  2  0
 10 11  2  0
 10 12  1  0
 12 13  1  0
 13 14  1  0
 13 15  2  0
 15 16  1  0
M  END
$$$$
