
     RDKit          3D

 16 17  0  0  0  0  0  0  0  0999 V2000
  -38.7257  187.7503   88.4169 C   0  0  0  0  0  0  0  0  0  0  0  0
  -39.9198  186.9865   88.1935 O   0  0  0  0  0  0  0  0  0  0  0  0
  -38.0631  188.0181   87.0834 C   0  0  0  0  0  0  0  0  0  0  0  0
  -36.9485  187.1187   87.0331 O   0  0  0  0  0  0  0  0  0  0  0  0
  -35.6627  187.6812   87.3807 C   0  0  0  0  0  0  0  0  0  0  0  0
  -36.1347  188.8223   88.1398 N   0  0  0  0  0  0  0  0  0  0  0  0
  -35.5405  189.5481   89.0876 C   0  0  0  0  0  0  0  0  0  0  0  0
  -36.3704  190.5516   89.4487 N   0  0  0  0  0  0  0  0  0  0  0  0
  -37.4929  190.4429   88.7094 C   0  0  0  0  0  0  0  0  0  0  0  0
  -38.6694  191.1606   88.6456 C   0  0  0  0  0  0  0  0  0  0  0  0
  -38.7936  192.1686   89.4168 O   0  0  0  0  0  0  0  0  0  0  0  0
  -39.6114  190.7498   87.7470 N   0  0  0  0  0  0  0  0  0  0  0  0
  -39.4199  189.6608   86.9434 C   0  0  0  0  0  0  0  0  0  0  0  0
  -40.3206  189.2168   86.0463 N   0  0  0  0  0  0  0  0  0  0  0  0
  -38.2963  188.9644   87.0309 N   0  0  0  0  0  0  0  0  0  0  0  0
  -37.3290  189.3613   87.8768 C   0  0  0  0  0  0  0  0  0  0  0  0
  1  2  1  6
  1  3  1  0
  3  4  1  1
  5  4  1  6
  5  6  1  0
  6  7  1  0
  6 16  1  0
  7  8  2  0
  8  9  1  0
  9 10  1  0
  9 16  2  0
 10 11  2  0
 10 12  1  0
 12 13  1  0
 13 14  1  0
 13 15  2  0
 15 16  1  0
M  END
$$$$
