
     RDKit          3D

 16 17  0  0  0  0  0  0  0  0999 V2000
  152.6348  150.8962 -636.2726 C   0  0  0  0  0  0  0  0  0  0  0  0
  152.2176  152.0119 -637.0724 O   0  0  0  0  0  0  0  0  0  0  0  0
  151.5379  149.8540 -636.2818 C   0  0  0  0  0  0  0  0  0  0  0  0
  150.3185  150.5966 -636.4061 O   0  0  0  0  0  0  0  0  0  0  0  0
  149.7846  151.1500 -635.1819 C   0  0  0  0  0  0  0  0  0  0  0  0
  149.0775  152.2776 -635.7559 N   0  0  0  0  0  0  0  0  0  0  0  0
  147.7758  152.4785 -635.9650 C   0  0  0  0  0  0  0  0  0  0  0  0
  147.6051  153.7195 -636.4718 N   0  0  0  0  0  0  0  0  0  0  0  0
  148.8214  154.2928 -636.5738 C   0  0  0  0  0  0  0  0  0  0  0  0
  149.2665  155.5189 -637.0232 C   0  0  0  0  0  0  0  0  0  0  0  0
  148.3951  156.3517 -637.4390 O   0  0  0  0  0  0  0  0  0  0  0  0
  150.6092  155.7601 -636.9736 N   0  0  0  0  0  0  0  0  0  0  0  0
  151.4964  154.8273 -636.5139 C   0  0  0  0  0  0  0  0  0  0  0  0
  152.8277  155.0188 -636.4498 N   0  0  0  0  0  0  0  0  0  0  0  0
  151.0602  153.6440 -636.1082 N   0  0  0  0  0  0  0  0  0  0  0  0
  149.7406  153.3839 -636.1057 C   0  0  0  0  0  0  0  0  0  0  0  0
  1  2  1  6
  1  3  1  0
  3  4  1  1
  5  4  1  6
  5  6  1  0
  6  7  1  0
  6 16  1  0
  7  8  2  0
  8  9  1  0
  9 10  1  0
  9 16  2  0
 10 11  2  0
 10 12  1  0
 12 13  1  0
 13 14  1  0
 13 15  2  0
 15 16  1  0
M  END
$$$$
