
     RDKit          3D

 16 17  0  0  0  0  0  0  0  0999 V2000
  566.4872  469.9721   62.2406 C   0  0  0  0  0  0  0  0  0  0  0  0
  566.6027  468.9364   61.2540 O   0  0  0  0  0  0  0  0  0  0  0  0
  567.6754  469.8893   63.1740 C   0  0  0  0  0  0  0  0  0  0  0  0
  567.1137  469.6717   64.4745 O   0  0  0  0  0  0  0  0  0  0  0  0
  565.8923  470.3882   64.7669 C   0  0  0  0  0  0  0  0  0  0  0  0
  565.7824  471.1248   63.5234 N   0  0  0  0  0  0  0  0  0  0  0  0
  564.8361  471.1170   62.5839 C   0  0  0  0  0  0  0  0  0  0  0  0
  565.1570  472.0277   61.6385 N   0  0  0  0  0  0  0  0  0  0  0  0
  566.3187  472.6070   62.0033 C   0  0  0  0  0  0  0  0  0  0  0  0
  567.1220  473.5775   61.4406 C   0  0  0  0  0  0  0  0  0  0  0  0
  566.7443  474.0962   60.3384 O   0  0  0  0  0  0  0  0  0  0  0  0
  568.2568  473.9261   62.1143 N   0  0  0  0  0  0  0  0  0  0  0  0
  568.6086  473.3355   63.2955 C   0  0  0  0  0  0  0  0  0  0  0  0
  569.7187  473.6440   63.9925 N   0  0  0  0  0  0  0  0  0  0  0  0
  567.8424  472.3871   63.8140 N   0  0  0  0  0  0  0  0  0  0  0  0
  566.6965  472.0442   63.1991 C   0  0  0  0  0  0  0  0  0  0  0  0
  1  2  1  6
  1  3  1  0
  3  4  1  1
  5  4  1  6
  5  6  1  0
  6  7  1  0
  6 16  1  0
  7  8  2  0
  8  9  1  0
  9 10  1  0
  9 16  2  0
 10 11  2  0
 10 12  1  0
 12 13  1  0
 13 14  1  0
 13 15  2  0
 15 16  1  0
M  END
$$$$
