
     RDKit          3D

 16 17  0  0  0  0  0  0  0  0999 V2000
  -43.0869  454.3219  208.8293 C   0  0  0  0  0  0  0  0  0  0  0  0
  -43.0625  452.8959  208.6688 O   0  0  0  0  0  0  0  0  0  0  0  0
  -42.0287  454.7161  209.8361 C   0  0  0  0  0  0  0  0  0  0  0  0
  -42.1355  456.1404  209.9515 O   0  0  0  0  0  0  0  0  0  0  0  0
  -42.8988  456.8057  208.9194 C   0  0  0  0  0  0  0  0  0  0  0  0
  -42.1389  456.3481  207.7730 N   0  0  0  0  0  0  0  0  0  0  0  0
  -40.8246  456.2126  207.5929 C   0  0  0  0  0  0  0  0  0  0  0  0
  -40.6075  455.6874  206.3668 N   0  0  0  0  0  0  0  0  0  0  0  0
  -41.8079  455.4945  205.7836 C   0  0  0  0  0  0  0  0  0  0  0  0
  -42.2079  455.0071  204.5566 C   0  0  0  0  0  0  0  0  0  0  0  0
  -41.3020  454.6250  203.7445 O   0  0  0  0  0  0  0  0  0  0  0  0
  -43.5488  454.9523  204.3060 N   0  0  0  0  0  0  0  0  0  0  0  0
  -44.4745  455.3749  205.2185 C   0  0  0  0  0  0  0  0  0  0  0  0
  -45.8050  455.3431  205.0144 N   0  0  0  0  0  0  0  0  0  0  0  0
  -44.0777  455.8643  206.3839 N   0  0  0  0  0  0  0  0  0  0  0  0
  -42.7667  455.8983  206.6823 C   0  0  0  0  0  0  0  0  0  0  0  0
  1  2  1  6
  1  3  1  0
  3  4  1  1
  5  4  1  6
  5  6  1  0
  6  7  1  0
  6 16  1  0
  7  8  2  0
  8  9  1  0
  9 10  1  0
  9 16  2  0
 10 11  2  0
 10 12  1  0
 12 13  1  0
 13 14  1  0
 13 15  2  0
 15 16  1  0
M  END
$$$$
