
     RDKit          3D

 25 28  0  0  0  0  0  0  0  0999 V2000
  864.4009-1151.0182 -964.4656 C   0  0  0  0  0  0  0  0  0  0  0  0
  861.7605-1148.6061 -963.3240 C   0  0  0  0  0  0  0  0  0  0  0  0
  862.1403-1148.8108 -964.7030 C   0  0  0  0  0  0  0  0  0  0  0  0
  860.4502-1148.6760 -962.9233 C   0  0  0  0  0  0  0  0  0  0  0  0
  859.4572-1148.9543 -963.8926 C   0  0  0  0  0  0  0  0  0  0  0  0
  861.1624-1149.1140 -965.6055 C   0  0  0  0  0  0  0  0  0  0  0  0
  857.6697-1149.3796 -965.0620 C   0  0  0  0  0  0  0  0  0  0  0  0
  862.2960-1146.0569 -966.3774 C   0  0  0  0  0  0  0  0  0  0  0  0
  865.2648-1143.0515 -966.8119 C   0  0  0  0  0  0  0  0  0  0  0  0
  863.5497-1148.6803 -965.1158 C   0  0  0  0  0  0  0  0  0  0  0  0
  864.5311-1149.6538 -964.9841 N   0  0  0  0  0  0  0  0  0  0  0  0
  865.6624-1149.1339 -965.5376 C   0  0  0  0  0  0  0  0  0  0  0  0
  865.4897-1147.9348 -966.0270 N   0  0  0  0  0  0  0  0  0  0  0  0
  864.1653-1147.6143 -965.7579 C   0  0  0  0  0  0  0  0  0  0  0  0
  863.6512-1146.2773 -966.1381 C   0  0  0  0  0  0  0  0  0  0  0  0
  864.5746-1145.3058 -966.2415 N   0  0  0  0  0  0  0  0  0  0  0  0
  864.1826-1144.0697 -966.6097 C   0  0  0  0  0  0  0  0  0  0  0  0
  862.8358-1143.7689 -966.8505 C   0  0  0  0  0  0  0  0  0  0  0  0
  861.8867-1144.7719 -966.7234 C   0  0  0  0  0  0  0  0  0  0  0  0
  864.3746-1150.9695 -962.8917 C   0  0  2  0  0  0  0  0  0  0  0  0
  864.3472-1149.6840 -962.4586 F   0  0  0  0  0  0  0  0  0  0  0  0
  865.5616-1151.4454 -962.4520 F   0  0  0  0  0  0  0  0  0  0  0  0
  859.8341-1149.1593 -965.2280 N   0  0  0  0  0  0  0  0  0  0  0  0
  858.1354-1149.0935 -963.7990 N   0  0  0  0  0  0  0  0  0  0  0  0
  858.6850-1149.4187 -965.9558 C   0  0  0  0  0  0  0  0  0  0  0  0
  1 11  1  6
  1 20  1  0
  2  3  1  0
  2  4  2  0
  3  6  2  0
  3 10  1  0
  4  5  1  0
  5 23  1  0
  5 24  2  0
  6 23  1  0
  7 24  1  0
  7 25  2  0
  8 15  2  0
  8 19  1  0
  9 17  1  6
 10 11  1  0
 10 14  2  0
 11 12  1  0
 12 13  2  0
 13 14  1  0
 14 15  1  0
 15 16  1  0
 16 17  2  0
 17 18  1  0
 18 19  2  0
 20 21  1  6
 20 22  1  0
 23 25  1  0
M  END
$$$$
