
     RDKit          3D

 25 28  0  0  0  0  0  0  0  0999 V2000
 -891.0687 -865.1727 -484.1477 C   0  0  0  0  0  0  0  0  0  0  0  0
 -890.2242 -867.7528 -482.5969 C   0  0  0  0  0  0  0  0  0  0  0  0
 -891.6414 -867.6975 -482.3210 C   0  0  0  0  0  0  0  0  0  0  0  0
 -889.5384 -868.9413 -482.5919 C   0  0  0  0  0  0  0  0  0  0  0  0
 -890.2469 -870.1335 -482.3070 C   0  0  0  0  0  0  0  0  0  0  0  0
 -892.3014 -868.8687 -482.0862 C   0  0  0  0  0  0  0  0  0  0  0  0
 -890.9757 -872.1534 -481.9442 C   0  0  0  0  0  0  0  0  0  0  0  0
 -893.8631 -866.5974 -479.1015 C   0  0  0  0  0  0  0  0  0  0  0  0
 -896.8132 -869.3136 -480.5011 C   0  0  0  0  0  0  0  0  0  0  0  0
 -892.3443 -866.4016 -482.2833 C   0  0  0  0  0  0  0  0  0  0  0  0
 -892.0633 -865.2996 -483.0794 N   0  0  0  0  0  0  0  0  0  0  0  0
 -892.9813 -864.3469 -482.7504 C   0  0  0  0  0  0  0  0  0  0  0  0
 -893.8297 -864.7451 -481.8391 N   0  0  0  0  0  0  0  0  0  0  0  0
 -893.4390 -866.0363 -481.5119 C   0  0  0  0  0  0  0  0  0  0  0  0
 -894.1703 -866.7678 -480.4500 C   0  0  0  0  0  0  0  0  0  0  0  0
 -895.1344 -867.6030 -480.8760 N   0  0  0  0  0  0  0  0  0  0  0  0
 -895.8231 -868.3213 -479.9668 C   0  0  0  0  0  0  0  0  0  0  0  0
 -895.5817 -868.1909 -478.5931 C   0  0  0  0  0  0  0  0  0  0  0  0
 -894.5984 -867.3135 -478.1610 C   0  0  0  0  0  0  0  0  0  0  0  0
 -891.8123 -865.0703 -485.5320 C   0  0  2  0  0  0  0  0  0  0  0  0
 -892.2946 -866.2837 -485.9016 F   0  0  0  0  0  0  0  0  0  0  0  0
 -890.8828 -864.7804 -486.4706 F   0  0  0  0  0  0  0  0  0  0  0  0
 -891.6245 -870.0724 -482.0470 N   0  0  0  0  0  0  0  0  0  0  0  0
 -889.8596 -871.4067 -482.2458 N   0  0  0  0  0  0  0  0  0  0  0  0
 -892.0659 -871.3632 -481.8102 C   0  0  0  0  0  0  0  0  0  0  0  0
  1 11  1  6
  1 20  1  0
  2  3  1  0
  2  4  2  0
  3  6  2  0
  3 10  1  0
  4  5  1  0
  5 23  1  0
  5 24  2  0
  6 23  1  0
  7 24  1  0
  7 25  2  0
  8 15  2  0
  8 19  1  0
  9 17  1  6
 10 11  1  0
 10 14  2  0
 11 12  1  0
 12 13  2  0
 13 14  1  0
 14 15  1  0
 15 16  1  0
 16 17  2  0
 17 18  1  0
 18 19  2  0
 20 21  1  6
 20 22  1  0
 23 25  1  0
M  END
$$$$
