
     RDKit          3D

 25 28  0  0  0  0  0  0  0  0999 V2000
  172.1144 1267.8280 -843.5128 C   0  0  0  0  0  0  0  0  0  0  0  0
  176.2937 1269.5359 -843.0414 C   0  0  0  0  0  0  0  0  0  0  0  0
  174.8984 1269.2000 -842.8746 C   0  0  0  0  0  0  0  0  0  0  0  0
  176.6904 1270.8014 -843.3928 C   0  0  0  0  0  0  0  0  0  0  0  0
  175.6994 1271.7917 -843.5950 C   0  0  0  0  0  0  0  0  0  0  0  0
  173.9709 1270.1873 -843.0413 C   0  0  0  0  0  0  0  0  0  0  0  0
  174.4961 1273.5688 -843.9647 C   0  0  0  0  0  0  0  0  0  0  0  0
  177.2729 1268.0140 -841.0646 C   0  0  0  0  0  0  0  0  0  0  0  0
  179.1557 1264.2117 -840.8721 C   0  0  0  0  0  0  0  0  0  0  0  0
  174.4977 1267.8198 -842.5453 C   0  0  0  0  0  0  0  0  0  0  0  0
  173.2633 1267.2437 -842.8160 N   0  0  0  0  0  0  0  0  0  0  0  0
  173.3447 1265.9504 -842.3926 C   0  0  0  0  0  0  0  0  0  0  0  0
  174.5154 1265.6447 -841.9004 N   0  0  0  0  0  0  0  0  0  0  0  0
  175.2608 1266.8140 -841.9678 C   0  0  0  0  0  0  0  0  0  0  0  0
  176.6416 1266.8264 -841.4290 C   0  0  0  0  0  0  0  0  0  0  0  0
  177.2368 1265.6254 -841.3262 N   0  0  0  0  0  0  0  0  0  0  0  0
  178.5033 1265.5625 -840.8688 C   0  0  0  0  0  0  0  0  0  0  0  0
  179.1962 1266.7119 -840.4674 C   0  0  0  0  0  0  0  0  0  0  0  0
  178.5684 1267.9453 -840.5593 C   0  0  0  0  0  0  0  0  0  0  0  0
  171.1748 1266.6691 -844.0150 C   0  0  2  0  0  0  0  0  0  0  0  0
  171.6470 1265.4651 -843.6045 F   0  0  0  0  0  0  0  0  0  0  0  0
  171.2720 1266.6243 -845.3632 F   0  0  0  0  0  0  0  0  0  0  0  0
  174.3466 1271.4606 -843.4243 N   0  0  0  0  0  0  0  0  0  0  0  0
  175.7820 1273.0812 -843.9213 N   0  0  0  0  0  0  0  0  0  0  0  0
  173.5986 1272.5989 -843.6724 C   0  0  0  0  0  0  0  0  0  0  0  0
  1 11  1  6
  1 20  1  0
  2  3  1  0
  2  4  2  0
  3  6  2  0
  3 10  1  0
  4  5  1  0
  5 23  1  0
  5 24  2  0
  6 23  1  0
  7 24  1  0
  7 25  2  0
  8 15  2  0
  8 19  1  0
  9 17  1  6
 10 11  1  0
 10 14  2  0
 11 12  1  0
 12 13  2  0
 13 14  1  0
 14 15  1  0
 15 16  1  0
 16 17  2  0
 17 18  1  0
 18 19  2  0
 20 21  1  1
 20 22  1  0
 23 25  1  0
M  END
$$$$
