
     RDKit          3D

 25 28  0  0  0  0  0  0  0  0999 V2000
 -826.3688 -971.0264 -583.2372 C   0  0  0  0  0  0  0  0  0  0  0  0
 -827.2890 -969.7073 -580.6482 C   0  0  0  0  0  0  0  0  0  0  0  0
 -825.8882 -969.3594 -580.5861 C   0  0  0  0  0  0  0  0  0  0  0  0
 -828.0568 -969.7968 -579.5150 C   0  0  0  0  0  0  0  0  0  0  0  0
 -827.4503 -969.5417 -578.2615 C   0  0  0  0  0  0  0  0  0  0  0  0
 -825.3434 -969.0842 -579.3655 C   0  0  0  0  0  0  0  0  0  0  0  0
 -826.8981 -969.2027 -576.1821 C   0  0  0  0  0  0  0  0  0  0  0  0
 -822.5555 -966.4586 -581.8448 C   0  0  0  0  0  0  0  0  0  0  0  0
 -822.7063 -967.1774 -577.6619 C   0  0  0  0  0  0  0  0  0  0  0  0
 -825.0742 -969.3195 -581.8149 C   0  0  0  0  0  0  0  0  0  0  0  0
 -825.2901 -970.0746 -582.9599 N   0  0  0  0  0  0  0  0  0  0  0  0
 -824.3425 -969.6848 -583.8588 C   0  0  0  0  0  0  0  0  0  0  0  0
 -823.5604 -968.7423 -583.4034 N   0  0  0  0  0  0  0  0  0  0  0  0
 -823.9895 -968.5032 -582.1046 C   0  0  0  0  0  0  0  0  0  0  0  0
 -823.2658 -967.5120 -581.2731 C   0  0  0  0  0  0  0  0  0  0  0  0
 -823.3371 -967.7047 -579.9443 N   0  0  0  0  0  0  0  0  0  0  0  0
 -822.6805 -966.8568 -579.1271 C   0  0  0  0  0  0  0  0  0  0  0  0
 -821.9597 -965.7655 -579.6276 C   0  0  0  0  0  0  0  0  0  0  0  0
 -821.9068 -965.5634 -580.9990 C   0  0  0  0  0  0  0  0  0  0  0  0
 -826.9512 -970.7391 -584.6715 C   0  0  2  0  0  0  0  0  0  0  0  0
 -827.2610 -969.4249 -584.8022 F   0  0  0  0  0  0  0  0  0  0  0  0
 -828.1428 -971.3738 -584.7595 F   0  0  0  0  0  0  0  0  0  0  0  0
 -826.0914 -969.1971 -578.2096 N   0  0  0  0  0  0  0  0  0  0  0  0
 -827.9365 -969.5392 -577.0209 N   0  0  0  0  0  0  0  0  0  0  0  0
 -825.7580 -968.9953 -576.8810 C   0  0  0  0  0  0  0  0  0  0  0  0
  1 11  1  6
  1 20  1  0
  2  3  1  0
  2  4  2  0
  3  6  2  0
  3 10  1  0
  4  5  1  0
  5 23  1  0
  5 24  2  0
  6 23  1  0
  7 24  1  0
  7 25  2  0
  8 15  2  0
  8 19  1  0
  9 17  1  6
 10 11  1  0
 10 14  2  0
 11 12  1  0
 12 13  2  0
 13 14  1  0
 14 15  1  0
 15 16  1  0
 16 17  2  0
 17 18  1  0
 18 19  2  0
 20 21  1  1
 20 22  1  0
 23 25  1  0
M  END
$$$$
