
     RDKit          3D

 25 28  0  0  0  0  0  0  0  0999 V2000
  135.3902  162.2150   11.1603 C   0  0  0  0  0  0  0  0  0  0  0  0
  134.8009  161.0966    8.0227 C   0  0  0  0  0  0  0  0  0  0  0  0
  133.6267  161.7350    8.5719 C   0  0  0  0  0  0  0  0  0  0  0  0
  135.1660  161.2723    6.7121 C   0  0  0  0  0  0  0  0  0  0  0  0
  134.3647  162.0990    5.8887 C   0  0  0  0  0  0  0  0  0  0  0  0
  132.8966  162.5546    7.7609 C   0  0  0  0  0  0  0  0  0  0  0  0
  133.4197  163.2966    4.3341 C   0  0  0  0  0  0  0  0  0  0  0  0
  129.9830  159.6015   10.1858 C   0  0  0  0  0  0  0  0  0  0  0  0
  129.0789  161.8763    6.7148 C   0  0  0  0  0  0  0  0  0  0  0  0
  133.2290  161.4891    9.9704 C   0  0  0  0  0  0  0  0  0  0  0  0
  134.0254  161.6870   11.0906 N   0  0  0  0  0  0  0  0  0  0  0  0
  133.2478  161.3874   12.1694 C   0  0  0  0  0  0  0  0  0  0  0  0
  132.0309  161.0400   11.8443 N   0  0  0  0  0  0  0  0  0  0  0  0
  131.9954  161.0783   10.4567 C   0  0  0  0  0  0  0  0  0  0  0  0
  130.7543  160.6780    9.7519 C   0  0  0  0  0  0  0  0  0  0  0  0
  130.4341  161.4139    8.6731 N   0  0  0  0  0  0  0  0  0  0  0  0
  129.3324  161.0904    7.9670 C   0  0  0  0  0  0  0  0  0  0  0  0
  128.4988  160.0322    8.3517 C   0  0  0  0  0  0  0  0  0  0  0  0
  128.8261  159.2899    9.4765 C   0  0  0  0  0  0  0  0  0  0  0  0
  135.4920  163.2164   12.3709 C   0  0  2  0  0  0  0  0  0  0  0  0
  134.9427  164.4132   12.0434 F   0  0  0  0  0  0  0  0  0  0  0  0
  136.8029  163.4914   12.5604 F   0  0  0  0  0  0  0  0  0  0  0  0
  133.2299  162.7213    6.4304 N   0  0  0  0  0  0  0  0  0  0  0  0
  134.4753  162.4578    4.6102 N   0  0  0  0  0  0  0  0  0  0  0  0
  132.6388  163.4689    5.4263 C   0  0  0  0  0  0  0  0  0  0  0  0
  1 11  1  6
  1 20  1  0
  2  3  1  0
  2  4  2  0
  3  6  2  0
  3 10  1  0
  4  5  1  0
  5 23  1  0
  5 24  2  0
  6 23  1  0
  7 24  1  0
  7 25  2  0
  8 15  2  0
  8 19  1  0
  9 17  1  6
 10 11  1  0
 10 14  2  0
 11 12  1  0
 12 13  2  0
 13 14  1  0
 14 15  1  0
 15 16  1  0
 16 17  2  0
 17 18  1  0
 18 19  2  0
 20 21  1  6
 20 22  1  0
 23 25  1  0
M  END
$$$$
