
     RDKit          3D

 25 28  0  0  0  0  0  0  0  0999 V2000
  378.8180  753.0921 -514.6633 C   0  0  0  0  0  0  0  0  0  0  0  0
  381.7265  755.1868 -514.2495 C   0  0  0  0  0  0  0  0  0  0  0  0
  380.5539  755.7332 -514.8929 C   0  0  0  0  0  0  0  0  0  0  0  0
  382.9649  755.2568 -514.8351 C   0  0  0  0  0  0  0  0  0  0  0  0
  383.0831  755.8801 -516.1012 C   0  0  0  0  0  0  0  0  0  0  0  0
  380.7086  756.3595 -516.0954 C   0  0  0  0  0  0  0  0  0  0  0  0
  383.6696  756.7681 -518.0010 C   0  0  0  0  0  0  0  0  0  0  0  0
  379.8719  758.4347 -512.6286 C   0  0  0  0  0  0  0  0  0  0  0  0
  376.9203  761.0664 -514.1778 C   0  0  0  0  0  0  0  0  0  0  0  0
  379.2272  755.5995 -514.2638 C   0  0  0  0  0  0  0  0  0  0  0  0
  378.4731  754.4358 -514.1917 N   0  0  0  0  0  0  0  0  0  0  0  0
  377.3505  754.7514 -513.4858 C   0  0  0  0  0  0  0  0  0  0  0  0
  377.3290  755.9952 -513.0849 N   0  0  0  0  0  0  0  0  0  0  0  0
  378.4969  756.5609 -513.5785 C   0  0  0  0  0  0  0  0  0  0  0  0
  378.7588  758.0014 -513.3464 C   0  0  0  0  0  0  0  0  0  0  0  0
  377.8528  758.8491 -513.8649 N   0  0  0  0  0  0  0  0  0  0  0  0
  378.0126  760.1733 -513.6696 C   0  0  0  0  0  0  0  0  0  0  0  0
  379.1154  760.6846 -512.9730 C   0  0  0  0  0  0  0  0  0  0  0  0
  380.0550  759.8047 -512.4572 C   0  0  0  0  0  0  0  0  0  0  0  0
  380.3792  752.9062 -514.5850 C   0  0  2  0  0  0  0  0  0  0  0  0
  380.8473  753.3261 -513.3831 F   0  0  0  0  0  0  0  0  0  0  0  0
  380.9347  753.7592 -515.4761 F   0  0  0  0  0  0  0  0  0  0  0  0
  381.9414  756.4148 -516.7170 N   0  0  0  0  0  0  0  0  0  0  0  0
  384.1340  756.1031 -516.8893 N   0  0  0  0  0  0  0  0  0  0  0  0
  382.3324  756.9653 -517.9252 C   0  0  0  0  0  0  0  0  0  0  0  0
  1 11  1  6
  1 20  1  0
  2  3  1  0
  2  4  2  0
  3  6  2  0
  3 10  1  0
  4  5  1  0
  5 23  1  0
  5 24  2  0
  6 23  1  0
  7 24  1  0
  7 25  2  0
  8 15  2  0
  8 19  1  0
  9 17  1  6
 10 11  1  0
 10 14  2  0
 11 12  1  0
 12 13  2  0
 13 14  1  0
 14 15  1  0
 15 16  1  0
 16 17  2  0
 17 18  1  0
 18 19  2  0
 20 21  1  1
 20 22  1  0
 23 25  1  0
M  END
$$$$
