
     RDKit          3D

 25 28  0  0  0  0  0  0  0  0999 V2000
  368.3600 -892.5991-1158.3210 C   0  0  0  0  0  0  0  0  0  0  0  0
  369.9861 -894.6674-1156.5204 C   0  0  0  0  0  0  0  0  0  0  0  0
  370.0175 -895.2567-1157.8397 C   0  0  0  0  0  0  0  0  0  0  0  0
  369.9082 -895.4421-1155.3911 C   0  0  0  0  0  0  0  0  0  0  0  0
  369.8560 -896.8493-1155.5343 C   0  0  0  0  0  0  0  0  0  0  0  0
  370.0028 -896.6174-1157.9408 C   0  0  0  0  0  0  0  0  0  0  0  0
  369.7840 -899.0181-1155.3416 C   0  0  0  0  0  0  0  0  0  0  0  0
  372.0081 -896.7207-1159.7990 C   0  0  0  0  0  0  0  0  0  0  0  0
  374.3168 -895.8102-1163.2455 C   0  0  0  0  0  0  0  0  0  0  0  0
  370.0511 -894.3990-1159.0391 C   0  0  0  0  0  0  0  0  0  0  0  0
  369.3002 -893.2480-1159.2385 N   0  0  0  0  0  0  0  0  0  0  0  0
  369.6816 -892.7484-1160.4482 C   0  0  0  0  0  0  0  0  0  0  0  0
  370.6150 -893.4581-1161.0250 N   0  0  0  0  0  0  0  0  0  0  0  0
  370.8563 -894.5193-1160.1633 C   0  0  0  0  0  0  0  0  0  0  0  0
  371.8381 -895.5599-1160.5513 C   0  0  0  0  0  0  0  0  0  0  0  0
  372.5497 -895.3035-1161.6633 N   0  0  0  0  0  0  0  0  0  0  0  0
  373.4800 -896.1935-1162.0613 C   0  0  0  0  0  0  0  0  0  0  0  0
  373.6960 -897.3902-1161.3656 C   0  0  0  0  0  0  0  0  0  0  0  0
  372.9446 -897.6557-1160.2307 C   0  0  0  0  0  0  0  0  0  0  0  0
  367.1654 -893.5823-1158.0298 C   0  0  2  0  0  0  0  0  0  0  0  0
  367.3526 -894.7604-1158.6761 F   0  0  0  0  0  0  0  0  0  0  0  0
  366.0588 -893.0575-1158.6051 F   0  0  0  0  0  0  0  0  0  0  0  0
  369.8941 -897.4144-1156.8176 N   0  0  0  0  0  0  0  0  0  0  0  0
  369.7924 -897.8338-1154.6390 N   0  0  0  0  0  0  0  0  0  0  0  0
  369.8379 -898.7908-1156.6753 C   0  0  0  0  0  0  0  0  0  0  0  0
  1 11  1  6
  1 20  1  0
  2  3  1  0
  2  4  2  0
  3  6  2  0
  3 10  1  0
  4  5  1  0
  5 23  1  0
  5 24  2  0
  6 23  1  0
  7 24  1  0
  7 25  2  0
  8 15  2  0
  8 19  1  0
  9 17  1  6
 10 11  1  0
 10 14  2  0
 11 12  1  0
 12 13  2  0
 13 14  1  0
 14 15  1  0
 15 16  1  0
 16 17  2  0
 17 18  1  0
 18 19  2  0
 20 21  1  6
 20 22  1  0
 23 25  1  0
M  END
$$$$
