
     RDKit          3D

 25 28  0  0  0  0  0  0  0  0999 V2000
  263.6290  156.5904 -515.5021 C   0  0  0  0  0  0  0  0  0  0  0  0
  266.2527  156.4676 -513.3444 C   0  0  0  0  0  0  0  0  0  0  0  0
  265.4873  157.6819 -513.1794 C   0  0  0  0  0  0  0  0  0  0  0  0
  266.7445  155.7777 -512.2656 C   0  0  0  0  0  0  0  0  0  0  0  0
  266.4910  156.2782 -510.9660 C   0  0  0  0  0  0  0  0  0  0  0  0
  265.2297  158.1176 -511.9117 C   0  0  0  0  0  0  0  0  0  0  0  0
  266.2949  156.7063 -508.8394 C   0  0  0  0  0  0  0  0  0  0  0  0
  267.2159  160.5352 -513.3658 C   0  0  0  0  0  0  0  0  0  0  0  0
  265.4193  164.3835 -513.3102 C   0  0  0  0  0  0  0  0  0  0  0  0
  265.0133  158.4310 -514.3580 C   0  0  0  0  0  0  0  0  0  0  0  0
  264.2152  157.9271 -515.3765 N   0  0  0  0  0  0  0  0  0  0  0  0
  263.9775  158.9671 -516.2250 C   0  0  0  0  0  0  0  0  0  0  0  0
  264.5287  160.0853 -515.8335 N   0  0  0  0  0  0  0  0  0  0  0  0
  265.2061  159.7715 -514.6624 C   0  0  0  0  0  0  0  0  0  0  0  0
  265.9980  160.8220 -513.9795 C   0  0  0  0  0  0  0  0  0  0  0  0
  265.4601  162.0542 -513.9873 N   0  0  0  0  0  0  0  0  0  0  0  0
  266.1125  163.0542 -513.3616 C   0  0  0  0  0  0  0  0  0  0  0  0
  267.3492  162.8461 -512.7375 C   0  0  0  0  0  0  0  0  0  0  0  0
  267.9059  161.5758 -512.7496 C   0  0  0  0  0  0  0  0  0  0  0  0
  264.7381  155.5132 -515.2057 C   0  0  2  0  0  0  0  0  0  0  0  0
  265.4408  155.2343 -516.3322 F   0  0  0  0  0  0  0  0  0  0  0  0
  264.1081  154.3535 -514.9092 F   0  0  0  0  0  0  0  0  0  0  0  0
  265.7410  157.4542 -510.8128 N   0  0  0  0  0  0  0  0  0  0  0  0
  266.8221  155.8263 -509.7571 N   0  0  0  0  0  0  0  0  0  0  0  0
  265.6357  157.7141 -509.4571 C   0  0  0  0  0  0  0  0  0  0  0  0
  1 11  1  6
  1 20  1  0
  2  3  1  0
  2  4  2  0
  3  6  2  0
  3 10  1  0
  4  5  1  0
  5 23  1  0
  5 24  2  0
  6 23  1  0
  7 24  1  0
  7 25  2  0
  8 15  2  0
  8 19  1  0
  9 17  1  6
 10 11  1  0
 10 14  2  0
 11 12  1  0
 12 13  2  0
 13 14  1  0
 14 15  1  0
 15 16  1  0
 16 17  2  0
 17 18  1  0
 18 19  2  0
 20 21  1  6
 20 22  1  0
 23 25  1  0
M  END
$$$$
