
     RDKit          3D

 25 28  0  0  0  0  0  0  0  0999 V2000
-1659.4359  759.3576  -52.1923 C   0  0  0  0  0  0  0  0  0  0  0  0
-1656.5382  758.8090  -51.5947 C   0  0  0  0  0  0  0  0  0  0  0  0
-1657.0587  758.4971  -50.2828 C   0  0  0  0  0  0  0  0  0  0  0  0
-1655.2191  759.1356  -51.7849 C   0  0  0  0  0  0  0  0  0  0  0  0
-1654.3579  759.1657  -50.6620 C   0  0  0  0  0  0  0  0  0  0  0  0
-1656.1938  758.4998  -49.2269 C   0  0  0  0  0  0  0  0  0  0  0  0
-1652.7388  759.2935  -49.2114 C   0  0  0  0  0  0  0  0  0  0  0  0
-1658.4680  757.3874  -46.6845 C   0  0  0  0  0  0  0  0  0  0  0  0
-1656.9220  753.4941  -47.3885 C   0  0  0  0  0  0  0  0  0  0  0  0
-1658.4901  758.1990  -50.0998 C   0  0  0  0  0  0  0  0  0  0  0  0
-1659.5209  758.6033  -50.9388 N   0  0  0  0  0  0  0  0  0  0  0  0
-1660.6641  758.0674  -50.4255 C   0  0  0  0  0  0  0  0  0  0  0  0
-1660.4570  757.3449  -49.3559 N   0  0  0  0  0  0  0  0  0  0  0  0
-1659.0913  757.4252  -49.1163 C   0  0  0  0  0  0  0  0  0  0  0  0
-1658.5240  756.7519  -47.9238 C   0  0  0  0  0  0  0  0  0  0  0  0
-1658.0656  755.5040  -48.1229 N   0  0  0  0  0  0  0  0  0  0  0  0
-1657.5118  754.8401  -47.0881 C   0  0  0  0  0  0  0  0  0  0  0  0
-1657.4349  755.4075  -45.8098 C   0  0  0  0  0  0  0  0  0  0  0  0
-1657.9271  756.6884  -45.6088 C   0  0  0  0  0  0  0  0  0  0  0  0
-1660.0303  758.4824  -53.3585 C   0  0  2  0  0  0  0  0  0  0  0  0
-1661.2146  757.9351  -52.9847 F   0  0  0  0  0  0  0  0  0  0  0  0
-1659.2098  757.4202  -53.5267 F   0  0  0  0  0  0  0  0  0  0  0  0
-1654.8688  758.8548  -49.3921 N   0  0  0  0  0  0  0  0  0  0  0  0
-1653.0580  759.4288  -50.5434 N   0  0  0  0  0  0  0  0  0  0  0  0
-1653.8275  758.9507  -48.4842 C   0  0  0  0  0  0  0  0  0  0  0  0
  1 11  1  6
  1 20  1  0
  2  3  1  0
  2  4  2  0
  3  6  2  0
  3 10  1  0
  4  5  1  0
  5 23  1  0
  5 24  2  0
  6 23  1  0
  7 24  1  0
  7 25  2  0
  8 15  2  0
  8 19  1  0
  9 17  1  6
 10 11  1  0
 10 14  2  0
 11 12  1  0
 12 13  2  0
 13 14  1  0
 14 15  1  0
 15 16  1  0
 16 17  2  0
 17 18  1  0
 18 19  2  0
 20 21  1  1
 20 22  1  0
 23 25  1  0
M  END
$$$$
