
     RDKit          3D

 25 28  0  0  0  0  0  0  0  0999 V2000
 -166.2979  115.5513 -115.3142 C   0  0  0  0  0  0  0  0  0  0  0  0
 -163.6517  115.2137 -116.9425 C   0  0  0  0  0  0  0  0  0  0  0  0
 -164.2507  116.3553 -117.5952 C   0  0  0  0  0  0  0  0  0  0  0  0
 -162.8591  114.3292 -117.6291 C   0  0  0  0  0  0  0  0  0  0  0  0
 -162.6318  114.5501 -119.0087 C   0  0  0  0  0  0  0  0  0  0  0  0
 -163.9819  116.5594 -118.9176 C   0  0  0  0  0  0  0  0  0  0  0  0
 -162.0339  114.5604 -121.1030 C   0  0  0  0  0  0  0  0  0  0  0  0
 -163.1418  119.6035 -117.9568 C   0  0  0  0  0  0  0  0  0  0  0  0
 -165.6783  122.4688 -119.7995 C   0  0  0  0  0  0  0  0  0  0  0  0
 -165.1391  117.2622 -116.8451 C   0  0  0  0  0  0  0  0  0  0  0  0
 -166.0451  116.8864 -115.8623 N   0  0  0  0  0  0  0  0  0  0  0  0
 -166.6111  118.0387 -115.4042 C   0  0  0  0  0  0  0  0  0  0  0  0
 -166.1376  119.1092 -115.9849 N   0  0  0  0  0  0  0  0  0  0  0  0
 -165.2161  118.6465 -116.9149 C   0  0  0  0  0  0  0  0  0  0  0  0
 -164.5261  119.6177 -117.7969 C   0  0  0  0  0  0  0  0  0  0  0  0
 -165.3207  120.5070 -118.4180 N   0  0  0  0  0  0  0  0  0  0  0  0
 -164.7591  121.4375 -119.2152 C   0  0  0  0  0  0  0  0  0  0  0  0
 -163.3764  121.4754 -119.4377 C   0  0  0  0  0  0  0  0  0  0  0  0
 -162.5659  120.5427 -118.8079 C   0  0  0  0  0  0  0  0  0  0  0  0
 -166.5472  114.5477 -116.5013 C   0  0  2  0  0  0  0  0  0  0  0  0
 -167.5107  113.6515 -116.1697 F   0  0  0  0  0  0  0  0  0  0  0  0
 -165.4290  113.7996 -116.6413 F   0  0  0  0  0  0  0  0  0  0  0  0
 -163.2110  115.6644 -119.6343 N   0  0  0  0  0  0  0  0  0  0  0  0
 -161.9126  113.8836 -119.9107 N   0  0  0  0  0  0  0  0  0  0  0  0
 -162.8275  115.6482 -120.9644 C   0  0  0  0  0  0  0  0  0  0  0  0
  1 11  1  6
  1 20  1  0
  2  3  1  0
  2  4  2  0
  3  6  2  0
  3 10  1  0
  4  5  1  0
  5 23  1  0
  5 24  2  0
  6 23  1  0
  7 24  1  0
  7 25  2  0
  8 15  2  0
  8 19  1  0
  9 17  1  6
 10 11  1  0
 10 14  2  0
 11 12  1  0
 12 13  2  0
 13 14  1  0
 14 15  1  0
 15 16  1  0
 16 17  2  0
 17 18  1  0
 18 19  2  0
 20 21  1  1
 20 22  1  0
 23 25  1  0
M  END
$$$$
