
     RDKit          3D

 25 28  0  0  0  0  0  0  0  0999 V2000
  242.9812  789.5450 -956.8659 C   0  0  0  0  0  0  0  0  0  0  0  0
  242.6192  790.5289 -953.0326 C   0  0  0  0  0  0  0  0  0  0  0  0
  241.7150  789.9287 -953.9868 C   0  0  0  0  0  0  0  0  0  0  0  0
  242.3454  791.7390 -952.4478 C   0  0  0  0  0  0  0  0  0  0  0  0
  241.1467  792.4063 -952.7967 C   0  0  0  0  0  0  0  0  0  0  0  0
  240.5510  790.5813 -954.2733 C   0  0  0  0  0  0  0  0  0  0  0  0
  239.4202  793.7101 -953.0497 C   0  0  0  0  0  0  0  0  0  0  0  0
  240.2532  787.3426 -952.2911 C   0  0  0  0  0  0  0  0  0  0  0  0
  242.7534  784.5495 -950.2946 C   0  0  0  0  0  0  0  0  0  0  0  0
  242.0578  788.6514 -954.6382 C   0  0  0  0  0  0  0  0  0  0  0  0
  242.5937  788.5043 -955.9108 N   0  0  0  0  0  0  0  0  0  0  0  0
  242.8002  787.1682 -956.0856 C   0  0  0  0  0  0  0  0  0  0  0  0
  242.4679  786.4567 -955.0411 N   0  0  0  0  0  0  0  0  0  0  0  0
  241.9781  787.3679 -954.1152 C   0  0  0  0  0  0  0  0  0  0  0  0
  241.4550  786.8746 -952.8192 C   0  0  0  0  0  0  0  0  0  0  0  0
  242.2171  785.9606 -952.1937 N   0  0  0  0  0  0  0  0  0  0  0  0
  241.8165  785.4872 -950.9969 C   0  0  0  0  0  0  0  0  0  0  0  0
  240.6122  785.8976 -950.4111 C   0  0  0  0  0  0  0  0  0  0  0  0
  239.8227  786.8271 -951.0717 C   0  0  0  0  0  0  0  0  0  0  0  0
  242.2885  790.8993 -956.4584 C   0  0  2  0  0  0  0  0  0  0  0  0
  240.9409  790.7467 -956.4116 F   0  0  0  0  0  0  0  0  0  0  0  0
  242.4904  791.7777 -957.4669 F   0  0  0  0  0  0  0  0  0  0  0  0
  240.2698  791.8149 -953.7181 N   0  0  0  0  0  0  0  0  0  0  0  0
  240.6195  793.5609 -952.3908 N   0  0  0  0  0  0  0  0  0  0  0  0
  239.1856  792.6614 -953.8725 C   0  0  0  0  0  0  0  0  0  0  0  0
  1 11  1  6
  1 20  1  0
  2  3  1  0
  2  4  2  0
  3  6  2  0
  3 10  1  0
  4  5  1  0
  5 23  1  0
  5 24  2  0
  6 23  1  0
  7 24  1  0
  7 25  2  0
  8 15  2  0
  8 19  1  0
  9 17  1  6
 10 11  1  0
 10 14  2  0
 11 12  1  0
 12 13  2  0
 13 14  1  0
 14 15  1  0
 15 16  1  0
 16 17  2  0
 17 18  1  0
 18 19  2  0
 20 21  1  6
 20 22  1  0
 23 25  1  0
M  END
$$$$
