
     RDKit          3D

 25 28  0  0  0  0  0  0  0  0999 V2000
  846.1407 -298.1935  111.7014 C   0  0  0  0  0  0  0  0  0  0  0  0
  842.4021 -295.6366  111.4849 C   0  0  0  0  0  0  0  0  0  0  0  0
  843.6438 -296.3126  111.1853 C   0  0  0  0  0  0  0  0  0  0  0  0
  842.3475 -294.2755  111.6472 C   0  0  0  0  0  0  0  0  0  0  0  0
  843.5424 -293.5276  111.5173 C   0  0  0  0  0  0  0  0  0  0  0  0
  844.7701 -295.5579  111.0308 C   0  0  0  0  0  0  0  0  0  0  0  0
  845.1345 -292.0483  111.3728 C   0  0  0  0  0  0  0  0  0  0  0  0
  840.4060 -297.5960  111.2346 C   0  0  0  0  0  0  0  0  0  0  0  0
  839.0333 -299.5774  107.7373 C   0  0  0  0  0  0  0  0  0  0  0  0
  843.6835 -297.7816  111.0657 C   0  0  0  0  0  0  0  0  0  0  0  0
  844.7949 -298.5867  111.2766 N   0  0  0  0  0  0  0  0  0  0  0  0
  844.3723 -299.8719  111.1113 C   0  0  0  0  0  0  0  0  0  0  0  0
  843.0978 -299.9620  110.8375 N   0  0  0  0  0  0  0  0  0  0  0  0
  842.6392 -298.6525  110.7849 C   0  0  0  0  0  0  0  0  0  0  0  0
  841.2220 -298.3940  110.4349 C   0  0  0  0  0  0  0  0  0  0  0  0
  840.7836 -298.9835  109.3086 N   0  0  0  0  0  0  0  0  0  0  0  0
  839.4974 -298.8143  108.9425 C   0  0  0  0  0  0  0  0  0  0  0  0
  838.6224 -298.0125  109.6868 C   0  0  0  0  0  0  0  0  0  0  0  0
  839.0875 -297.3931  110.8370 C   0  0  0  0  0  0  0  0  0  0  0  0
  847.1185 -299.4117  111.5025 C   0  0  2  0  0  0  0  0  0  0  0  0
  847.8569 -299.6143  112.6229 F   0  0  0  0  0  0  0  0  0  0  0  0
  848.0255 -299.0546  110.5646 F   0  0  0  0  0  0  0  0  0  0  0  0
  844.7424 -294.1896  111.2196 N   0  0  0  0  0  0  0  0  0  0  0  0
  843.7890 -292.2209  111.6059 N   0  0  0  0  0  0  0  0  0  0  0  0
  845.7426 -293.2353  111.1411 C   0  0  0  0  0  0  0  0  0  0  0  0
  1 11  1  6
  1 20  1  0
  2  3  1  0
  2  4  2  0
  3  6  2  0
  3 10  1  0
  4  5  1  0
  5 23  1  0
  5 24  2  0
  6 23  1  0
  7 24  1  0
  7 25  2  0
  8 15  2  0
  8 19  1  0
  9 17  1  6
 10 11  1  0
 10 14  2  0
 11 12  1  0
 12 13  2  0
 13 14  1  0
 14 15  1  0
 15 16  1  0
 16 17  2  0
 17 18  1  0
 18 19  2  0
 20 21  1  1
 20 22  1  0
 23 25  1  0
M  END
$$$$
