
     RDKit          3D

 25 28  0  0  0  0  0  0  0  0999 V2000
  167.3648-1125.0968 -212.7776 C   0  0  0  0  0  0  0  0  0  0  0  0
  169.4411-1122.2583 -213.4505 C   0  0  0  0  0  0  0  0  0  0  0  0
  168.2344-1122.0510 -212.6831 C   0  0  0  0  0  0  0  0  0  0  0  0
  169.7293-1121.4960 -214.5539 C   0  0  0  0  0  0  0  0  0  0  0  0
  168.8146-1120.4875 -214.9401 C   0  0  0  0  0  0  0  0  0  0  0  0
  167.3917-1121.0465 -213.0610 C   0  0  0  0  0  0  0  0  0  0  0  0
  167.6879-1118.8466 -215.8248 C   0  0  0  0  0  0  0  0  0  0  0  0
  169.3602-1120.5105 -209.9502 C   0  0  0  0  0  0  0  0  0  0  0  0
  167.1770-1119.7957 -206.3777 C   0  0  0  0  0  0  0  0  0  0  0  0
  167.9250-1122.9186 -211.5310 C   0  0  0  0  0  0  0  0  0  0  0  0
  167.5252-1124.2463 -211.5954 N   0  0  0  0  0  0  0  0  0  0  0  0
  167.3999-1124.6705 -210.3059 C   0  0  0  0  0  0  0  0  0  0  0  0
  167.7017-1123.7485 -209.4310 N   0  0  0  0  0  0  0  0  0  0  0  0
  168.0208-1122.6218 -210.1783 C   0  0  0  0  0  0  0  0  0  0  0  0
  168.3611-1121.3600 -209.4789 C   0  0  0  0  0  0  0  0  0  0  0  0
  167.6511-1121.1007 -208.3669 N   0  0  0  0  0  0  0  0  0  0  0  0
  167.9247-1119.9835 -207.6646 C   0  0  0  0  0  0  0  0  0  0  0  0
  168.9034-1119.0735 -208.0851 C   0  0  0  0  0  0  0  0  0  0  0  0
  169.6185-1119.3392 -209.2434 C   0  0  0  0  0  0  0  0  0  0  0  0
  167.3159-1124.1873 -214.0615 C   0  0  2  0  0  0  0  0  0  0  0  0
  166.8313-1124.8854 -215.1193 F   0  0  0  0  0  0  0  0  0  0  0  0
  168.5927-1123.9022 -214.4060 F   0  0  0  0  0  0  0  0  0  0  0  0
  167.6483-1120.2867 -214.1861 N   0  0  0  0  0  0  0  0  0  0  0  0
  168.8328-1119.6027 -215.9361 N   0  0  0  0  0  0  0  0  0  0  0  0
  166.9424-1119.2483 -214.7688 C   0  0  0  0  0  0  0  0  0  0  0  0
  1 11  1  6
  1 20  1  0
  2  3  1  0
  2  4  2  0
  3  6  2  0
  3 10  1  0
  4  5  1  0
  5 23  1  0
  5 24  2  0
  6 23  1  0
  7 24  1  0
  7 25  2  0
  8 15  2  0
  8 19  1  0
  9 17  1  6
 10 11  1  0
 10 14  2  0
 11 12  1  0
 12 13  2  0
 13 14  1  0
 14 15  1  0
 15 16  1  0
 16 17  2  0
 17 18  1  0
 18 19  2  0
 20 21  1  6
 20 22  1  0
 23 25  1  0
M  END
$$$$
