
     RDKit          3D

 25 28  0  0  0  0  0  0  0  0999 V2000
  203.1965  490.5198  509.8743 C   0  0  0  0  0  0  0  0  0  0  0  0
  200.0656  492.5333  508.7235 C   0  0  0  0  0  0  0  0  0  0  0  0
  200.1570  491.2177  509.3139 C   0  0  0  0  0  0  0  0  0  0  0  0
  199.5206  492.7246  507.4793 C   0  0  0  0  0  0  0  0  0  0  0  0
  199.0415  491.5992  506.7671 C   0  0  0  0  0  0  0  0  0  0  0  0
  199.6528  490.1586  508.6162 C   0  0  0  0  0  0  0  0  0  0  0  0
  198.1852  490.1455  505.3894 C   0  0  0  0  0  0  0  0  0  0  0  0
  197.7842  491.4649  511.4026 C   0  0  0  0  0  0  0  0  0  0  0  0
  197.3467  492.6364  515.4617 C   0  0  0  0  0  0  0  0  0  0  0  0
  200.7932  491.0337  510.6316 C   0  0  0  0  0  0  0  0  0  0  0  0
  202.1243  490.7074  510.8549 N   0  0  0  0  0  0  0  0  0  0  0  0
  202.2913  490.6907  512.2076 C   0  0  0  0  0  0  0  0  0  0  0  0
  201.2026  490.9953  512.8629 N   0  0  0  0  0  0  0  0  0  0  0  0
  200.2328  491.2001  511.8906 C   0  0  0  0  0  0  0  0  0  0  0  0
  198.8444  491.5121  512.3059 C   0  0  0  0  0  0  0  0  0  0  0  0
  198.6844  491.8473  513.5982 N   0  0  0  0  0  0  0  0  0  0  0  0
  197.4524  492.1695  514.0402 C   0  0  0  0  0  0  0  0  0  0  0  0
  196.3356  492.1287  513.1952 C   0  0  0  0  0  0  0  0  0  0  0  0
  196.5066  491.7640  511.8682 C   0  0  0  0  0  0  0  0  0  0  0  0
  202.6063  489.8142  508.5967 C   0  0  2  0  0  0  0  0  0  0  0  0
  203.6053  489.4391  507.7584 F   0  0  0  0  0  0  0  0  0  0  0  0
  201.9184  490.7474  507.8997 F   0  0  0  0  0  0  0  0  0  0  0  0
  199.1270  490.3257  507.3494 N   0  0  0  0  0  0  0  0  0  0  0  0
  198.4626  491.4813  505.5727 N   0  0  0  0  0  0  0  0  0  0  0  0
  198.5873  489.4160  506.4562 C   0  0  0  0  0  0  0  0  0  0  0  0
  1 11  1  6
  1 20  1  0
  2  3  1  0
  2  4  2  0
  3  6  2  0
  3 10  1  0
  4  5  1  0
  5 23  1  0
  5 24  2  0
  6 23  1  0
  7 24  1  0
  7 25  2  0
  8 15  2  0
  8 19  1  0
  9 17  1  6
 10 11  1  0
 10 14  2  0
 11 12  1  0
 12 13  2  0
 13 14  1  0
 14 15  1  0
 15 16  1  0
 16 17  2  0
 17 18  1  0
 18 19  2  0
 20 21  1  6
 20 22  1  0
 23 25  1  0
M  END
$$$$
