
     RDKit          3D

 25 28  0  0  0  0  0  0  0  0999 V2000
 -368.7007-1216.0172 -174.1584 C   0  0  0  0  0  0  0  0  0  0  0  0
 -370.6475-1213.7885 -176.8498 C   0  0  0  0  0  0  0  0  0  0  0  0
 -370.5051-1215.2103 -176.6350 C   0  0  0  0  0  0  0  0  0  0  0  0
 -370.1911-1213.1871 -177.9954 C   0  0  0  0  0  0  0  0  0  0  0  0
 -369.5665-1213.9888 -178.9810 C   0  0  0  0  0  0  0  0  0  0  0  0
 -369.9313-1215.9597 -177.6207 C   0  0  0  0  0  0  0  0  0  0  0  0
 -368.5887-1214.8707 -180.7159 C   0  0  0  0  0  0  0  0  0  0  0  0
 -373.6258-1215.4224 -176.9605 C   0  0  0  0  0  0  0  0  0  0  0  0
 -377.0288-1216.6797 -174.7520 C   0  0  0  0  0  0  0  0  0  0  0  0
 -370.9594-1215.8230 -175.3730 C   0  0  0  0  0  0  0  0  0  0  0  0
 -370.1483-1216.1886 -174.3069 N   0  0  0  0  0  0  0  0  0  0  0  0
 -370.9820-1216.6620 -173.3381 C   0  0  0  0  0  0  0  0  0  0  0  0
 -372.2428-1216.6129 -173.6770 N   0  0  0  0  0  0  0  0  0  0  0  0
 -372.2573-1216.1027 -174.9682 C   0  0  0  0  0  0  0  0  0  0  0  0
 -373.5507-1215.9680 -175.6804 C   0  0  0  0  0  0  0  0  0  0  0  0
 -374.6327-1216.3983 -175.0086 N   0  0  0  0  0  0  0  0  0  0  0  0
 -375.8458-1216.2833 -175.5848 C   0  0  0  0  0  0  0  0  0  0  0  0
 -375.9986-1215.7598 -176.8753 C   0  0  0  0  0  0  0  0  0  0  0  0
 -374.8748-1215.3357 -177.5689 C   0  0  0  0  0  0  0  0  0  0  0  0
 -368.0421-1217.4229 -173.8920 C   0  0  2  0  0  0  0  0  0  0  0  0
 -367.7588-1217.5701 -172.5734 F   0  0  0  0  0  0  0  0  0  0  0  0
 -366.8322-1217.4238 -174.4960 F   0  0  0  0  0  0  0  0  0  0  0  0
 -369.4382-1215.3698 -178.7687 N   0  0  0  0  0  0  0  0  0  0  0  0
 -369.0491-1213.6925 -180.1726 N   0  0  0  0  0  0  0  0  0  0  0  0
 -368.8069-1215.9099 -179.8762 C   0  0  0  0  0  0  0  0  0  0  0  0
  1 11  1  6
  1 20  1  0
  2  3  1  0
  2  4  2  0
  3  6  2  0
  3 10  1  0
  4  5  1  0
  5 23  1  0
  5 24  2  0
  6 23  1  0
  7 24  1  0
  7 25  2  0
  8 15  2  0
  8 19  1  0
  9 17  1  6
 10 11  1  0
 10 14  2  0
 11 12  1  0
 12 13  2  0
 13 14  1  0
 14 15  1  0
 15 16  1  0
 16 17  2  0
 17 18  1  0
 18 19  2  0
 20 21  1  1
 20 22  1  0
 23 25  1  0
M  END
$$$$
