
     RDKit          3D

 25 28  0  0  0  0  0  0  0  0999 V2000
 -797.3646  578.8326  771.6790 C   0  0  0  0  0  0  0  0  0  0  0  0
 -797.4114  582.5107  773.6478 C   0  0  0  0  0  0  0  0  0  0  0  0
 -797.3486  581.0898  773.9026 C   0  0  0  0  0  0  0  0  0  0  0  0
 -796.3935  583.3518  774.0187 C   0  0  0  0  0  0  0  0  0  0  0  0
 -795.2608  582.8030  774.6668 C   0  0  0  0  0  0  0  0  0  0  0  0
 -796.2267  580.5879  774.4969 C   0  0  0  0  0  0  0  0  0  0  0  0
 -793.3710  582.3448  775.6479 C   0  0  0  0  0  0  0  0  0  0  0  0
 -801.7333  580.9935  775.3806 C   0  0  0  0  0  0  0  0  0  0  0  0
 -798.9944  583.1635  777.7955 C   0  0  0  0  0  0  0  0  0  0  0  0
 -798.4787  580.2155  773.5388 C   0  0  0  0  0  0  0  0  0  0  0  0
 -798.4713  579.2452  772.5458 N   0  0  0  0  0  0  0  0  0  0  0  0
 -799.6954  578.6469  772.5876 C   0  0  0  0  0  0  0  0  0  0  0  0
 -800.4703  579.1282  773.5234 N   0  0  0  0  0  0  0  0  0  0  0  0
 -799.7321  580.1354  774.1306 C   0  0  0  0  0  0  0  0  0  0  0  0
 -800.3505  580.9346  775.2148 C   0  0  0  0  0  0  0  0  0  0  0  0
 -799.4937  581.5966  776.0121 N   0  0  0  0  0  0  0  0  0  0  0  0
 -799.9872  582.3654  777.0031 C   0  0  0  0  0  0  0  0  0  0  0  0
 -801.3642  582.4608  777.2416 C   0  0  0  0  0  0  0  0  0  0  0  0
 -802.2404  581.7602  776.4263 C   0  0  0  0  0  0  0  0  0  0  0  0
 -796.9546  580.0426  770.7587 C   0  0  2  0  0  0  0  0  0  0  0  0
 -797.4901  581.1976  771.2285 F   0  0  0  0  0  0  0  0  0  0  0  0
 -797.5525  579.8608  769.5596 F   0  0  0  0  0  0  0  0  0  0  0  0
 -795.2032  581.4217  774.9050 N   0  0  0  0  0  0  0  0  0  0  0  0
 -794.1376  583.3587  775.1197 N   0  0  0  0  0  0  0  0  0  0  0  0
 -794.0011  581.1521  775.5362 C   0  0  0  0  0  0  0  0  0  0  0  0
  1 11  1  6
  1 20  1  0
  2  3  1  0
  2  4  2  0
  3  6  2  0
  3 10  1  0
  4  5  1  0
  5 23  1  0
  5 24  2  0
  6 23  1  0
  7 24  1  0
  7 25  2  0
  8 15  2  0
  8 19  1  0
  9 17  1  6
 10 11  1  0
 10 14  2  0
 11 12  1  0
 12 13  2  0
 13 14  1  0
 14 15  1  0
 15 16  1  0
 16 17  2  0
 17 18  1  0
 18 19  2  0
 20 21  1  1
 20 22  1  0
 23 25  1  0
M  END
$$$$
