
     RDKit          3D

 25 28  0  0  0  0  0  0  0  0999 V2000
 1628.4570-1247.0427-1880.5696 C   0  0  0  0  0  0  0  0  0  0  0  0
 1625.2295-1247.9679-1882.7412 C   0  0  0  0  0  0  0  0  0  0  0  0
 1626.6499-1247.9617-1883.0050 C   0  0  0  0  0  0  0  0  0  0  0  0
 1624.4799-1249.1085-1882.8772 C   0  0  0  0  0  0  0  0  0  0  0  0
 1625.1240-1250.3011-1883.2860 C   0  0  0  0  0  0  0  0  0  0  0  0
 1627.2463-1249.1355-1883.3628 C   0  0  0  0  0  0  0  0  0  0  0  0
 1625.7446-1252.3073-1883.8622 C   0  0  0  0  0  0  0  0  0  0  0  0
 1626.3096-1244.3918-1885.5623 C   0  0  0  0  0  0  0  0  0  0  0  0
 1626.7290-1247.7469-1888.1326 C   0  0  0  0  0  0  0  0  0  0  0  0
 1627.4225-1246.7098-1882.9008 C   0  0  0  0  0  0  0  0  0  0  0  0
 1628.1925-1246.3169-1881.8145 N   0  0  0  0  0  0  0  0  0  0  0  0
 1628.7672-1245.1311-1882.1641 C   0  0  0  0  0  0  0  0  0  0  0  0
 1628.4543-1244.7449-1883.3726 N   0  0  0  0  0  0  0  0  0  0  0  0
 1627.5891-1245.7170-1883.8566 C   0  0  0  0  0  0  0  0  0  0  0  0
 1626.9934-1245.5513-1885.2041 C   0  0  0  0  0  0  0  0  0  0  0  0
 1627.1521-1246.5902-1886.0422 N   0  0  0  0  0  0  0  0  0  0  0  0
 1626.6134-1246.5211-1887.2767 C   0  0  0  0  0  0  0  0  0  0  0  0
 1625.9263-1245.3806-1887.7130 C   0  0  0  0  0  0  0  0  0  0  0  0
 1625.7834-1244.3065-1886.8485 C   0  0  0  0  0  0  0  0  0  0  0  0
 1628.2781-1248.5856-1880.8275 C   0  0  2  0  0  0  0  0  0  0  0  0
 1629.4858-1249.2040-1880.8610 F   0  0  0  0  0  0  0  0  0  0  0  0
 1627.7925-1248.7333-1882.0817 F   0  0  0  0  0  0  0  0  0  0  0  0
 1626.5048-1250.2888-1883.5339 N   0  0  0  0  0  0  0  0  0  0  0  0
 1624.6683-1251.5367-1883.4856 N   0  0  0  0  0  0  0  0  0  0  0  0
 1626.8774-1251.5692-1883.9070 C   0  0  0  0  0  0  0  0  0  0  0  0
  1 11  1  6
  1 20  1  0
  2  3  1  0
  2  4  2  0
  3  6  2  0
  3 10  1  0
  4  5  1  0
  5 23  1  0
  5 24  2  0
  6 23  1  0
  7 24  1  0
  7 25  2  0
  8 15  2  0
  8 19  1  0
  9 17  1  6
 10 11  1  0
 10 14  2  0
 11 12  1  0
 12 13  2  0
 13 14  1  0
 14 15  1  0
 15 16  1  0
 16 17  2  0
 17 18  1  0
 18 19  2  0
 20 21  1  6
 20 22  1  0
 23 25  1  0
M  END
$$$$
