
     RDKit          3D

 25 28  0  0  0  0  0  0  0  0999 V2000
 2473.2229 -395.8531-1423.6661 C   0  0  0  0  0  0  0  0  0  0  0  0
 2474.2568 -392.6994-1423.9515 C   0  0  0  0  0  0  0  0  0  0  0  0
 2473.8623 -393.1861-1425.2533 C   0  0  0  0  0  0  0  0  0  0  0  0
 2475.3911 -391.9450-1423.7811 C   0  0  0  0  0  0  0  0  0  0  0  0
 2476.1843 -391.6453-1424.9143 C   0  0  0  0  0  0  0  0  0  0  0  0
 2474.6289 -392.8484-1426.3304 C   0  0  0  0  0  0  0  0  0  0  0  0
 2477.6296 -390.9612-1426.3937 C   0  0  0  0  0  0  0  0  0  0  0  0
 2471.0222 -391.4370-1426.7792 C   0  0  0  0  0  0  0  0  0  0  0  0
 2470.7170 -392.7511-1430.8074 C   0  0  0  0  0  0  0  0  0  0  0  0
 2472.6665 -394.0371-1425.4006 C   0  0  0  0  0  0  0  0  0  0  0  0
 2472.4150 -395.2145-1424.7092 N   0  0  0  0  0  0  0  0  0  0  0  0
 2471.1841 -395.6387-1425.1129 C   0  0  0  0  0  0  0  0  0  0  0  0
 2470.6230 -394.8347-1425.9764 N   0  0  0  0  0  0  0  0  0  0  0  0
 2471.5459 -393.8206-1426.1907 C   0  0  0  0  0  0  0  0  0  0  0  0
 2471.2395 -392.7558-1427.1743 C   0  0  0  0  0  0  0  0  0  0  0  0
 2471.1775 -393.1497-1428.4586 N   0  0  0  0  0  0  0  0  0  0  0  0
 2470.8748 -392.2400-1429.4070 C   0  0  0  0  0  0  0  0  0  0  0  0
 2470.6619 -390.8923-1429.0872 C   0  0  0  0  0  0  0  0  0  0  0  0
 2470.7449 -390.4905-1427.7626 C   0  0  0  0  0  0  0  0  0  0  0  0
 2472.4385 -395.7950-1422.3024 C   0  0  2  0  0  0  0  0  0  0  0  0
 2471.1006 -395.8056-1422.5243 F   0  0  0  0  0  0  0  0  0  0  0  0
 2472.6758 -394.5825-1421.7502 F   0  0  0  0  0  0  0  0  0  0  0  0
 2475.7913 -392.1155-1426.1770 N   0  0  0  0  0  0  0  0  0  0  0  0
 2477.3044 -390.9391-1425.0568 N   0  0  0  0  0  0  0  0  0  0  0  0
 2476.7261 -391.6792-1427.1002 C   0  0  0  0  0  0  0  0  0  0  0  0
  1 11  1  6
  1 20  1  0
  2  3  1  0
  2  4  2  0
  3  6  2  0
  3 10  1  0
  4  5  1  0
  5 23  1  0
  5 24  2  0
  6 23  1  0
  7 24  1  0
  7 25  2  0
  8 15  2  0
  8 19  1  0
  9 17  1  6
 10 11  1  0
 10 14  2  0
 11 12  1  0
 12 13  2  0
 13 14  1  0
 14 15  1  0
 15 16  1  0
 16 17  2  0
 17 18  1  0
 18 19  2  0
 20 21  1  6
 20 22  1  0
 23 25  1  0
M  END
$$$$
