
     RDKit          3D

 25 28  0  0  0  0  0  0  0  0999 V2000
 -706.3174  563.6664  604.1666 C   0  0  0  0  0  0  0  0  0  0  0  0
 -706.5786  559.7891  606.5620 C   0  0  0  0  0  0  0  0  0  0  0  0
 -706.6595  561.1347  606.0409 C   0  0  0  0  0  0  0  0  0  0  0  0
 -707.7043  559.0392  606.7885 C   0  0  0  0  0  0  0  0  0  0  0  0
 -708.9688  559.6079  606.5028 C   0  0  0  0  0  0  0  0  0  0  0  0
 -707.8911  561.6395  605.7416 C   0  0  0  0  0  0  0  0  0  0  0  0
 -711.0616  560.1119  606.1707 C   0  0  0  0  0  0  0  0  0  0  0  0
 -702.9492  561.1846  608.5777 C   0  0  0  0  0  0  0  0  0  0  0  0
 -704.0093  557.1625  607.7191 C   0  0  0  0  0  0  0  0  0  0  0  0
 -705.4365  561.9371  605.8539 C   0  0  0  0  0  0  0  0  0  0  0  0
 -705.3018  563.0321  605.0108 N   0  0  0  0  0  0  0  0  0  0  0  0
 -704.0334  563.4973  605.1893 C   0  0  0  0  0  0  0  0  0  0  0  0
 -703.3576  562.8181  606.0781 N   0  0  0  0  0  0  0  0  0  0  0  0
 -704.2159  561.8126  606.5029 C   0  0  0  0  0  0  0  0  0  0  0  0
 -703.7325  560.8144  607.4863 C   0  0  0  0  0  0  0  0  0  0  0  0
 -704.0932  559.5410  607.2488 N   0  0  0  0  0  0  0  0  0  0  0  0
 -703.6668  558.5757  608.0875 C   0  0  0  0  0  0  0  0  0  0  0  0
 -702.8903  558.8735  609.2148 C   0  0  0  0  0  0  0  0  0  0  0  0
 -702.5386  560.1915  609.4629 C   0  0  0  0  0  0  0  0  0  0  0  0
 -706.5223  565.1539  604.6395 C   0  0  2  0  0  0  0  0  0  0  0  0
 -706.6008  565.2144  605.9929 F   0  0  0  0  0  0  0  0  0  0  0  0
 -707.7455  565.5493  604.2161 F   0  0  0  0  0  0  0  0  0  0  0  0
 -709.0394  560.9119  605.9906 N   0  0  0  0  0  0  0  0  0  0  0  0
 -710.2063  559.1254  606.6063 N   0  0  0  0  0  0  0  0  0  0  0  0
 -710.3754  561.2168  605.7950 C   0  0  0  0  0  0  0  0  0  0  0  0
  1 11  1  6
  1 20  1  0
  2  3  1  0
  2  4  2  0
  3  6  2  0
  3 10  1  0
  4  5  1  0
  5 23  1  0
  5 24  2  0
  6 23  1  0
  7 24  1  0
  7 25  2  0
  8 15  2  0
  8 19  1  0
  9 17  1  6
 10 11  1  0
 10 14  2  0
 11 12  1  0
 12 13  2  0
 13 14  1  0
 14 15  1  0
 15 16  1  0
 16 17  2  0
 17 18  1  0
 18 19  2  0
 20 21  1  1
 20 22  1  0
 23 25  1  0
M  END
$$$$
