
     RDKit          3D

 25 28  0  0  0  0  0  0  0  0999 V2000
  309.7702 -681.2870-1118.9749 C   0  0  0  0  0  0  0  0  0  0  0  0
  308.1909 -683.0747-1121.6248 C   0  0  0  0  0  0  0  0  0  0  0  0
  308.9877 -683.8347-1120.6886 C   0  0  0  0  0  0  0  0  0  0  0  0
  308.3733 -683.1878-1122.9800 C   0  0  0  0  0  0  0  0  0  0  0  0
  309.3696 -684.0717-1123.4596 C   0  0  0  0  0  0  0  0  0  0  0  0
  309.9146 -684.7046-1121.1854 C   0  0  0  0  0  0  0  0  0  0  0  0
  310.7621 -685.3240-1124.5712 C   0  0  0  0  0  0  0  0  0  0  0  0
  307.3147 -686.3762-1119.7690 C   0  0  0  0  0  0  0  0  0  0  0  0
  306.6076 -688.5028-1116.1614 C   0  0  0  0  0  0  0  0  0  0  0  0
  308.8053 -683.6564-1119.2365 C   0  0  0  0  0  0  0  0  0  0  0  0
  309.1744 -682.5383-1118.5007 N   0  0  0  0  0  0  0  0  0  0  0  0
  308.7762 -682.7767-1117.2184 C   0  0  0  0  0  0  0  0  0  0  0  0
  308.1720 -683.9266-1117.0745 N   0  0  0  0  0  0  0  0  0  0  0  0
  308.1918 -684.5134-1118.3328 C   0  0  0  0  0  0  0  0  0  0  0  0
  307.6274 -685.8723-1118.5082 C   0  0  0  0  0  0  0  0  0  0  0  0
  307.4341 -686.5732-1117.3770 N   0  0  0  0  0  0  0  0  0  0  0  0
  306.8987 -687.8075-1117.4586 C   0  0  0  0  0  0  0  0  0  0  0  0
  306.5745 -688.3872-1118.6917 C   0  0  0  0  0  0  0  0  0  0  0  0
  306.7945 -687.6648-1119.8552 C   0  0  0  0  0  0  0  0  0  0  0  0
  310.9472 -681.6221-1119.9657 C   0  0  2  0  0  0  0  0  0  0  0  0
  312.1423 -681.5356-1119.3280 F   0  0  0  0  0  0  0  0  0  0  0  0
  310.9906 -680.6367-1120.8915 F   0  0  0  0  0  0  0  0  0  0  0  0
  310.1348 -684.8118-1122.5453 N   0  0  0  0  0  0  0  0  0  0  0  0
  309.7560 -684.3929-1124.6937 N   0  0  0  0  0  0  0  0  0  0  0  0
  311.0185 -685.5927-1123.2701 C   0  0  0  0  0  0  0  0  0  0  0  0
  1 11  1  6
  1 20  1  0
  2  3  1  0
  2  4  2  0
  3  6  2  0
  3 10  1  0
  4  5  1  0
  5 23  1  0
  5 24  2  0
  6 23  1  0
  7 24  1  0
  7 25  2  0
  8 15  2  0
  8 19  1  0
  9 17  1  6
 10 11  1  0
 10 14  2  0
 11 12  1  0
 12 13  2  0
 13 14  1  0
 14 15  1  0
 15 16  1  0
 16 17  2  0
 17 18  1  0
 18 19  2  0
 20 21  1  1
 20 22  1  0
 23 25  1  0
M  END
$$$$
