
     RDKit          3D

 25 28  0  0  0  0  0  0  0  0999 V2000
-1942.4420  782.1848 -263.1104 C   0  0  0  0  0  0  0  0  0  0  0  0
-1940.5651  783.8546 -261.4222 C   0  0  0  0  0  0  0  0  0  0  0  0
-1940.7191  784.7787 -262.5226 C   0  0  0  0  0  0  0  0  0  0  0  0
-1939.4733  783.9012 -260.5934 C   0  0  0  0  0  0  0  0  0  0  0  0
-1938.4797  784.8808 -260.8333 C   0  0  0  0  0  0  0  0  0  0  0  0
-1939.7615  785.7335 -262.7035 C   0  0  0  0  0  0  0  0  0  0  0  0
-1936.7760  786.2375 -260.8593 C   0  0  0  0  0  0  0  0  0  0  0  0
-1943.1356  788.0563 -264.6724 C   0  0  0  0  0  0  0  0  0  0  0  0
-1939.0452  789.0240 -264.0611 C   0  0  0  0  0  0  0  0  0  0  0  0
-1941.8787  784.6741 -263.4279 C   0  0  0  0  0  0  0  0  0  0  0  0
-1942.6075  783.5214 -263.6873 N   0  0  0  0  0  0  0  0  0  0  0  0
-1943.6123  783.8881 -264.5329 C   0  0  0  0  0  0  0  0  0  0  0  0
-1943.6041  785.1632 -264.8171 N   0  0  0  0  0  0  0  0  0  0  0  0
-1942.5061  785.6830 -264.1454 C   0  0  0  0  0  0  0  0  0  0  0  0
-1942.1725  787.1188 -264.3033 C   0  0  0  0  0  0  0  0  0  0  0  0
-1940.8883  787.4468 -264.0748 N   0  0  0  0  0  0  0  0  0  0  0  0
-1940.5068  788.7307 -264.2259 C   0  0  0  0  0  0  0  0  0  0  0  0
-1941.4221  789.7316 -264.5782 C   0  0  0  0  0  0  0  0  0  0  0  0
-1942.7483  789.3877 -264.7937 C   0  0  0  0  0  0  0  0  0  0  0  0
-1942.4434  782.2999 -261.5401 C   0  0  2  0  0  0  0  0  0  0  0  0
-1942.4597  783.6026 -261.1603 F   0  0  0  0  0  0  0  0  0  0  0  0
-1941.2517  781.8374 -261.0985 F   0  0  0  0  0  0  0  0  0  0  0  0
-1938.6394  785.7789 -261.8992 N   0  0  0  0  0  0  0  0  0  0  0  0
-1937.3431  785.1688 -260.2017 N   0  0  0  0  0  0  0  0  0  0  0  0
-1937.5436  786.6254 -261.9047 C   0  0  0  0  0  0  0  0  0  0  0  0
  1 11  1  6
  1 20  1  0
  2  3  1  0
  2  4  2  0
  3  6  2  0
  3 10  1  0
  4  5  1  0
  5 23  1  0
  5 24  2  0
  6 23  1  0
  7 24  1  0
  7 25  2  0
  8 15  2  0
  8 19  1  0
  9 17  1  6
 10 11  1  0
 10 14  2  0
 11 12  1  0
 12 13  2  0
 13 14  1  0
 14 15  1  0
 15 16  1  0
 16 17  2  0
 17 18  1  0
 18 19  2  0
 20 21  1  6
 20 22  1  0
 23 25  1  0
M  END
$$$$
