
     RDKit          3D

 25 28  0  0  0  0  0  0  0  0999 V2000
  406.0098 1371.7583  835.9792 C   0  0  0  0  0  0  0  0  0  0  0  0
  405.1164 1367.2482  836.2661 C   0  0  0  0  0  0  0  0  0  0  0  0
  405.3128 1368.6796  836.2555 C   0  0  0  0  0  0  0  0  0  0  0  0
  404.4755 1366.6196  837.3033 C   0  0  0  0  0  0  0  0  0  0  0  0
  404.0017 1367.4021  838.3833 C   0  0  0  0  0  0  0  0  0  0  0  0
  404.8116 1369.4097  837.2944 C   0  0  0  0  0  0  0  0  0  0  0  0
  403.1207 1368.2501  840.1863 C   0  0  0  0  0  0  0  0  0  0  0  0
  405.7759 1366.8350  832.6577 C   0  0  0  0  0  0  0  0  0  0  0  0
  408.6763 1364.3898  834.5679 C   0  0  0  0  0  0  0  0  0  0  0  0
  406.0492 1369.3242  835.1522 C   0  0  0  0  0  0  0  0  0  0  0  0
  406.3269 1370.6796  835.0401 N   0  0  0  0  0  0  0  0  0  0  0  0
  407.0663 1370.8258  833.9041 C   0  0  0  0  0  0  0  0  0  0  0  0
  407.3035 1369.6919  833.2974 N   0  0  0  0  0  0  0  0  0  0  0  0
  406.6563 1368.7256  834.0559 C   0  0  0  0  0  0  0  0  0  0  0  0
  406.6796 1367.3140  833.6042 C   0  0  0  0  0  0  0  0  0  0  0  0
  407.6184 1366.5361  834.1721 N   0  0  0  0  0  0  0  0  0  0  0  0
  407.6816 1365.2347  833.8290 C   0  0  0  0  0  0  0  0  0  0  0  0
  406.8173 1364.6857  832.8724 C   0  0  0  0  0  0  0  0  0  0  0  0
  405.8641 1365.4987  832.2779 C   0  0  0  0  0  0  0  0  0  0  0  0
  407.2193 1371.9498  836.9681 C   0  0  2  0  0  0  0  0  0  0  0  0
  407.5268 1373.2665  837.0912 F   0  0  0  0  0  0  0  0  0  0  0  0
  408.3110 1371.4048  836.3845 F   0  0  0  0  0  0  0  0  0  0  0  0
  404.1896 1368.7935  838.3630 N   0  0  0  0  0  0  0  0  0  0  0  0
  403.3457 1367.0797  839.4969 N   0  0  0  0  0  0  0  0  0  0  0  0
  403.6324 1369.3109  839.5193 C   0  0  0  0  0  0  0  0  0  0  0  0
  1 11  1  6
  1 20  1  0
  2  3  1  0
  2  4  2  0
  3  6  2  0
  3 10  1  0
  4  5  1  0
  5 23  1  0
  5 24  2  0
  6 23  1  0
  7 24  1  0
  7 25  2  0
  8 15  2  0
  8 19  1  0
  9 17  1  6
 10 11  1  0
 10 14  2  0
 11 12  1  0
 12 13  2  0
 13 14  1  0
 14 15  1  0
 15 16  1  0
 16 17  2  0
 17 18  1  0
 18 19  2  0
 20 21  1  6
 20 22  1  0
 23 25  1  0
M  END
$$$$
