
     RDKit          3D

 25 28  0  0  0  0  0  0  0  0999 V2000
  422.9756-2384.7590 -682.5894 C   0  0  0  0  0  0  0  0  0  0  0  0
  424.7769-2387.2053 -683.5082 C   0  0  0  0  0  0  0  0  0  0  0  0
  424.3357-2386.6274 -684.7574 C   0  0  0  0  0  0  0  0  0  0  0  0
  425.9792-2387.8550 -683.4043 C   0  0  0  0  0  0  0  0  0  0  0  0
  426.7982-2387.9587 -684.5546 C   0  0  0  0  0  0  0  0  0  0  0  0
  425.1652-2386.7107 -685.8380 C   0  0  0  0  0  0  0  0  0  0  0  0
  428.3268-2388.2988 -686.0687 C   0  0  0  0  0  0  0  0  0  0  0  0
  421.6508-2386.1028 -688.3849 C   0  0  0  0  0  0  0  0  0  0  0  0
  423.3788-2389.9819 -688.2791 C   0  0  0  0  0  0  0  0  0  0  0  0
  423.0157-2385.9773 -684.8539 C   0  0  0  0  0  0  0  0  0  0  0  0
  422.4283-2385.1780 -683.8821 N   0  0  0  0  0  0  0  0  0  0  0  0
  421.2450-2384.7483 -684.4056 C   0  0  0  0  0  0  0  0  0  0  0  0
  421.0348-2385.1792 -685.6211 N   0  0  0  0  0  0  0  0  0  0  0  0
  422.1319-2385.9751 -685.9244 C   0  0  0  0  0  0  0  0  0  0  0  0
  422.1815-2386.6743 -687.2304 C   0  0  0  0  0  0  0  0  0  0  0  0
  422.7612-2387.8879 -687.2205 N   0  0  0  0  0  0  0  0  0  0  0  0
  422.8170-2388.5920 -688.3681 C   0  0  0  0  0  0  0  0  0  0  0  0
  422.3206-2388.0757 -689.5717 C   0  0  0  0  0  0  0  0  0  0  0  0
  421.7411-2386.8162 -689.5773 C   0  0  0  0  0  0  0  0  0  0  0  0
  422.6597-2385.8667 -681.5154 C   0  0  2  0  0  0  0  0  0  0  0  0
  421.5833-2385.5105 -680.7698 F   0  0  0  0  0  0  0  0  0  0  0  0
  423.6866-2385.8809 -680.6351 F   0  0  0  0  0  0  0  0  0  0  0  0
  426.3668-2387.3896 -685.7620 N   0  0  0  0  0  0  0  0  0  0  0  0
  427.9966-2388.5076 -684.7493 N   0  0  0  0  0  0  0  0  0  0  0  0
  427.3460-2387.6240 -686.7126 C   0  0  0  0  0  0  0  0  0  0  0  0
  1 11  1  6
  1 20  1  0
  2  3  1  0
  2  4  2  0
  3  6  2  0
  3 10  1  0
  4  5  1  0
  5 23  1  0
  5 24  2  0
  6 23  1  0
  7 24  1  0
  7 25  2  0
  8 15  2  0
  8 19  1  0
  9 17  1  6
 10 11  1  0
 10 14  2  0
 11 12  1  0
 12 13  2  0
 13 14  1  0
 14 15  1  0
 15 16  1  0
 16 17  2  0
 17 18  1  0
 18 19  2  0
 20 21  1  1
 20 22  1  0
 23 25  1  0
M  END
$$$$
