
     RDKit          3D

 25 28  0  0  0  0  0  0  0  0999 V2000
 -166.0793  388.8784  686.8976 C   0  0  0  0  0  0  0  0  0  0  0  0
 -165.6099  388.3938  689.7975 C   0  0  0  0  0  0  0  0  0  0  0  0
 -164.6548  387.4190  689.3227 C   0  0  0  0  0  0  0  0  0  0  0  0
 -165.6441  388.7833  691.1122 C   0  0  0  0  0  0  0  0  0  0  0  0
 -164.7182  388.2086  692.0155 C   0  0  0  0  0  0  0  0  0  0  0  0
 -163.7523  386.9113  690.2119 C   0  0  0  0  0  0  0  0  0  0  0  0
 -163.4617  387.5825  693.6807 C   0  0  0  0  0  0  0  0  0  0  0  0
 -163.2629  383.5102  687.4835 C   0  0  0  0  0  0  0  0  0  0  0  0
 -160.8558  384.7193  690.7674 C   0  0  0  0  0  0  0  0  0  0  0  0
 -164.6726  386.9809  687.9149 C   0  0  0  0  0  0  0  0  0  0  0  0
 -165.3212  387.6249  686.8694 N   0  0  0  0  0  0  0  0  0  0  0  0
 -165.0326  386.9118  685.7441 C   0  0  0  0  0  0  0  0  0  0  0  0
 -164.2478  385.8918  685.9702 N   0  0  0  0  0  0  0  0  0  0  0  0
 -164.0179  385.9005  687.3397 C   0  0  0  0  0  0  0  0  0  0  0  0
 -163.1972  384.8242  687.9440 C   0  0  0  0  0  0  0  0  0  0  0  0
 -162.4005  385.1995  688.9597 N   0  0  0  0  0  0  0  0  0  0  0  0
 -161.6455  384.2677  689.5748 C   0  0  0  0  0  0  0  0  0  0  0  0
 -161.6460  382.9303  689.1575 C   0  0  0  0  0  0  0  0  0  0  0  0
 -162.4565  382.5552  688.0964 C   0  0  0  0  0  0  0  0  0  0  0  0
 -166.6702  389.1532  685.4643 C   0  0  2  0  0  0  0  0  0  0  0  0
 -165.6724  389.4129  684.5825 F   0  0  0  0  0  0  0  0  0  0  0  0
 -167.3686  390.3099  685.5289 F   0  0  0  0  0  0  0  0  0  0  0  0
 -163.7890  387.2677  691.5463 N   0  0  0  0  0  0  0  0  0  0  0  0
 -164.5097  388.3977  693.3177 N   0  0  0  0  0  0  0  0  0  0  0  0
 -163.0072  386.8756  692.6194 C   0  0  0  0  0  0  0  0  0  0  0  0
  1 11  1  6
  1 20  1  0
  2  3  1  0
  2  4  2  0
  3  6  2  0
  3 10  1  0
  4  5  1  0
  5 23  1  0
  5 24  2  0
  6 23  1  0
  7 24  1  0
  7 25  2  0
  8 15  2  0
  8 19  1  0
  9 17  1  6
 10 11  1  0
 10 14  2  0
 11 12  1  0
 12 13  2  0
 13 14  1  0
 14 15  1  0
 15 16  1  0
 16 17  2  0
 17 18  1  0
 18 19  2  0
 20 21  1  6
 20 22  1  0
 23 25  1  0
M  END
$$$$
