
     RDKit          3D

 25 28  0  0  0  0  0  0  0  0999 V2000
 -845.5152  394.6522  283.0409 C   0  0  0  0  0  0  0  0  0  0  0  0
 -845.9078  397.6560  280.8873 C   0  0  0  0  0  0  0  0  0  0  0  0
 -846.0183  397.6983  282.3274 C   0  0  0  0  0  0  0  0  0  0  0  0
 -846.9164  398.1122  280.0766 C   0  0  0  0  0  0  0  0  0  0  0  0
 -848.0881  398.6319  280.6771 C   0  0  0  0  0  0  0  0  0  0  0  0
 -847.1458  398.2388  282.8742 C   0  0  0  0  0  0  0  0  0  0  0  0
 -850.0065  399.5129  281.2127 C   0  0  0  0  0  0  0  0  0  0  0  0
 -842.4267  399.7986  283.2034 C   0  0  0  0  0  0  0  0  0  0  0  0
 -845.1314  402.1560  285.4763 C   0  0  0  0  0  0  0  0  0  0  0  0
 -844.9406  397.1555  283.1746 C   0  0  0  0  0  0  0  0  0  0  0  0
 -844.7496  395.8172  283.4921 N   0  0  0  0  0  0  0  0  0  0  0  0
 -843.6164  395.7619  284.2473 C   0  0  0  0  0  0  0  0  0  0  0  0
 -843.0583  396.9308  284.4220 N   0  0  0  0  0  0  0  0  0  0  0  0
 -843.8856  397.8345  283.7684 C   0  0  0  0  0  0  0  0  0  0  0  0
 -843.5637  399.2806  283.8207 C   0  0  0  0  0  0  0  0  0  0  0  0
 -844.4324  400.0460  284.5044 N   0  0  0  0  0  0  0  0  0  0  0  0
 -844.1889  401.3671  284.6164 C   0  0  0  0  0  0  0  0  0  0  0  0
 -843.0756  401.9623  284.0091 C   0  0  0  0  0  0  0  0  0  0  0  0
 -842.1948  401.1686  283.2898 C   0  0  0  0  0  0  0  0  0  0  0  0
 -846.2496  395.0104  281.6949 C   0  0  2  0  0  0  0  0  0  0  0  0
 -846.1578  396.3412  281.4447 F   0  0  0  0  0  0  0  0  0  0  0  0
 -847.5715  394.7972  281.8855 F   0  0  0  0  0  0  0  0  0  0  0  0
 -848.1854  398.6760  282.0763 N   0  0  0  0  0  0  0  0  0  0  0  0
 -849.2014  399.1473  280.1580 N   0  0  0  0  0  0  0  0  0  0  0  0
 -849.4138  399.2295  282.3961 C   0  0  0  0  0  0  0  0  0  0  0  0
  1 11  1  6
  1 20  1  0
  2  3  1  0
  2  4  2  0
  3  6  2  0
  3 10  1  0
  4  5  1  0
  5 23  1  0
  5 24  2  0
  6 23  1  0
  7 24  1  0
  7 25  2  0
  8 15  2  0
  8 19  1  0
  9 17  1  6
 10 11  1  0
 10 14  2  0
 11 12  1  0
 12 13  2  0
 13 14  1  0
 14 15  1  0
 15 16  1  0
 16 17  2  0
 17 18  1  0
 18 19  2  0
 20 21  1  1
 20 22  1  0
 23 25  1  0
M  END
$$$$
