
     RDKit          3D

 25 28  0  0  0  0  0  0  0  0999 V2000
 2251.2131 1486.8427 1151.4385 C   0  0  0  0  0  0  0  0  0  0  0  0
 2248.0552 1488.9904 1149.5520 C   0  0  0  0  0  0  0  0  0  0  0  0
 2249.4688 1488.9559 1149.8469 C   0  0  0  0  0  0  0  0  0  0  0  0
 2247.5881 1488.9324 1148.2640 C   0  0  0  0  0  0  0  0  0  0  0  0
 2248.5251 1488.8379 1147.2064 C   0  0  0  0  0  0  0  0  0  0  0  0
 2250.3442 1488.8262 1148.8075 C   0  0  0  0  0  0  0  0  0  0  0  0
 2249.6318 1488.6644 1145.3376 C   0  0  0  0  0  0  0  0  0  0  0  0
 2249.7078 1492.5686 1151.4833 C   0  0  0  0  0  0  0  0  0  0  0  0
 2245.6726 1492.5059 1152.8060 C   0  0  0  0  0  0  0  0  0  0  0  0
 2249.9441 1489.0704 1151.2379 C   0  0  0  0  0  0  0  0  0  0  0  0
 2250.6919 1488.1223 1151.9244 N   0  0  0  0  0  0  0  0  0  0  0  0
 2250.9524 1488.6564 1153.1504 C   0  0  0  0  0  0  0  0  0  0  0  0
 2250.4631 1489.8596 1153.3014 N   0  0  0  0  0  0  0  0  0  0  0  0
 2249.8032 1490.1399 1152.1117 C   0  0  0  0  0  0  0  0  0  0  0  0
 2249.0793 1491.4242 1151.9709 C   0  0  0  0  0  0  0  0  0  0  0  0
 2247.7886 1491.4104 1152.3499 N   0  0  0  0  0  0  0  0  0  0  0  0
 2247.0754 1492.5503 1152.2738 C   0  0  0  0  0  0  0  0  0  0  0  0
 2247.6335 1493.7361 1151.7782 C   0  0  0  0  0  0  0  0  0  0  0  0
 2248.9607 1493.7378 1151.3727 C   0  0  0  0  0  0  0  0  0  0  0  0
 2250.4114 1485.6698 1152.1163 C   0  0  2  0  0  0  0  0  0  0  0  0
 2249.1956 1486.1067 1152.5325 F   0  0  0  0  0  0  0  0  0  0  0  0
 2251.0574 1485.3436 1153.2587 F   0  0  0  0  0  0  0  0  0  0  0  0
 2249.8977 1488.7960 1147.4999 N   0  0  0  0  0  0  0  0  0  0  0  0
 2248.3711 1488.7526 1145.8856 N   0  0  0  0  0  0  0  0  0  0  0  0
 2250.5833 1488.6970 1146.3015 C   0  0  0  0  0  0  0  0  0  0  0  0
  1 11  1  6
  1 20  1  0
  2  3  1  0
  2  4  2  0
  3  6  2  0
  3 10  1  0
  4  5  1  0
  5 23  1  0
  5 24  2  0
  6 23  1  0
  7 24  1  0
  7 25  2  0
  8 15  2  0
  8 19  1  0
  9 17  1  6
 10 11  1  0
 10 14  2  0
 11 12  1  0
 12 13  2  0
 13 14  1  0
 14 15  1  0
 15 16  1  0
 16 17  2  0
 17 18  1  0
 18 19  2  0
 20 21  1  1
 20 22  1  0
 23 25  1  0
M  END
$$$$
