
     RDKit          3D

 25 28  0  0  0  0  0  0  0  0999 V2000
  498.7620  116.2867  403.3549 C   0  0  0  0  0  0  0  0  0  0  0  0
  495.9094  113.6157  400.9144 C   0  0  0  0  0  0  0  0  0  0  0  0
  496.7939  114.5306  401.5989 C   0  0  0  0  0  0  0  0  0  0  0  0
  495.1922  114.0022  399.8108 C   0  0  0  0  0  0  0  0  0  0  0  0
  495.3293  115.3310  399.3426 C   0  0  0  0  0  0  0  0  0  0  0  0
  496.9308  115.7935  401.1002 C   0  0  0  0  0  0  0  0  0  0  0  0
  495.2884  117.2527  398.3179 C   0  0  0  0  0  0  0  0  0  0  0  0
  495.4283  111.6810  402.5746 C   0  0  0  0  0  0  0  0  0  0  0  0
  497.3872  108.0866  403.7071 C   0  0  0  0  0  0  0  0  0  0  0  0
  497.5147  114.1040  402.8127 C   0  0  0  0  0  0  0  0  0  0  0  0
  498.3898  114.8842  403.5569 N   0  0  0  0  0  0  0  0  0  0  0  0
  498.7820  114.1164  404.6126 C   0  0  0  0  0  0  0  0  0  0  0  0
  498.2249  112.9344  404.6226 N   0  0  0  0  0  0  0  0  0  0  0  0
  497.4309  112.8922  403.4843 C   0  0  0  0  0  0  0  0  0  0  0  0
  496.6918  111.6483  403.1618 C   0  0  0  0  0  0  0  0  0  0  0  0
  497.3165  110.5008  403.4792 N   0  0  0  0  0  0  0  0  0  0  0  0
  496.6922  109.3306  403.2387 C   0  0  0  0  0  0  0  0  0  0  0  0
  495.4287  109.2835  402.6358 C   0  0  0  0  0  0  0  0  0  0  0  0
  494.7990  110.4712  402.2945 C   0  0  0  0  0  0  0  0  0  0  0  0
  500.2643  116.3575  402.8896 C   0  0  2  0  0  0  0  0  0  0  0  0
  500.3431  116.7932  401.6069 F   0  0  0  0  0  0  0  0  0  0  0  0
  500.7338  115.0898  402.8411 F   0  0  0  0  0  0  0  0  0  0  0  0
  496.1950  116.2119  400.0080 N   0  0  0  0  0  0  0  0  0  0  0  0
  494.7824  115.9727  398.3107 N   0  0  0  0  0  0  0  0  0  0  0  0
  496.1482  117.4281  399.3486 C   0  0  0  0  0  0  0  0  0  0  0  0
  1 11  1  6
  1 20  1  0
  2  3  1  0
  2  4  2  0
  3  6  2  0
  3 10  1  0
  4  5  1  0
  5 23  1  0
  5 24  2  0
  6 23  1  0
  7 24  1  0
  7 25  2  0
  8 15  2  0
  8 19  1  0
  9 17  1  6
 10 11  1  0
 10 14  2  0
 11 12  1  0
 12 13  2  0
 13 14  1  0
 14 15  1  0
 15 16  1  0
 16 17  2  0
 17 18  1  0
 18 19  2  0
 20 21  1  6
 20 22  1  0
 23 25  1  0
M  END
$$$$
