
     RDKit          3D

 25 28  0  0  0  0  0  0  0  0999 V2000
  -57.0115  415.8963  581.6121 C   0  0  0  0  0  0  0  0  0  0  0  0
  -58.1158  414.8935  584.1379 C   0  0  0  0  0  0  0  0  0  0  0  0
  -56.8611  415.3091  584.7219 C   0  0  0  0  0  0  0  0  0  0  0  0
  -59.1178  414.3510  584.9019 C   0  0  0  0  0  0  0  0  0  0  0  0
  -58.9047  414.1986  586.2930 C   0  0  0  0  0  0  0  0  0  0  0  0
  -56.7019  415.1819  586.0716 C   0  0  0  0  0  0  0  0  0  0  0  0
  -58.9679  413.8301  588.4385 C   0  0  0  0  0  0  0  0  0  0  0  0
  -54.3447  415.5250  586.6392 C   0  0  0  0  0  0  0  0  0  0  0  0
  -50.8344  417.9039  586.8777 C   0  0  0  0  0  0  0  0  0  0  0  0
  -55.7821  415.8426  583.8700 C   0  0  0  0  0  0  0  0  0  0  0  0
  -55.8624  416.0736  582.5032 N   0  0  0  0  0  0  0  0  0  0  0  0
  -54.6656  416.6133  582.1365 C   0  0  0  0  0  0  0  0  0  0  0  0
  -53.8428  416.7670  583.1401 N   0  0  0  0  0  0  0  0  0  0  0  0
  -54.5169  416.2708  584.2480 C   0  0  0  0  0  0  0  0  0  0  0  0
  -53.8314  416.2447  585.5620 C   0  0  0  0  0  0  0  0  0  0  0  0
  -52.6971  416.9623  585.6414 N   0  0  0  0  0  0  0  0  0  0  0  0
  -52.0343  417.0062  586.8143 C   0  0  0  0  0  0  0  0  0  0  0  0
  -52.4800  416.2947  587.9357 C   0  0  0  0  0  0  0  0  0  0  0  0
  -53.6408  415.5420  587.8404 C   0  0  0  0  0  0  0  0  0  0  0  0
  -57.2871  417.2487  580.8544 C   0  0  2  0  0  0  0  0  0  0  0  0
  -58.5159  417.7283  581.1725 F   0  0  0  0  0  0  0  0  0  0  0  0
  -57.3714  416.9641  579.5348 F   0  0  0  0  0  0  0  0  0  0  0  0
  -57.6867  414.6108  586.8542 N   0  0  0  0  0  0  0  0  0  0  0  0
  -59.6822  413.7267  587.2667 N   0  0  0  0  0  0  0  0  0  0  0  0
  -57.7427  414.3599  588.2148 C   0  0  0  0  0  0  0  0  0  0  0  0
  1 11  1  6
  1 20  1  0
  2  3  1  0
  2  4  2  0
  3  6  2  0
  3 10  1  0
  4  5  1  0
  5 23  1  0
  5 24  2  0
  6 23  1  0
  7 24  1  0
  7 25  2  0
  8 15  2  0
  8 19  1  0
  9 17  1  6
 10 11  1  0
 10 14  2  0
 11 12  1  0
 12 13  2  0
 13 14  1  0
 14 15  1  0
 15 16  1  0
 16 17  2  0
 17 18  1  0
 18 19  2  0
 20 21  1  1
 20 22  1  0
 23 25  1  0
M  END
$$$$
