
     RDKit          3D

 25 28  0  0  0  0  0  0  0  0999 V2000
 1261.2941 -217.6184  -48.8185 C   0  0  0  0  0  0  0  0  0  0  0  0
 1264.2777 -214.4820  -47.8349 C   0  0  0  0  0  0  0  0  0  0  0  0
 1263.1436 -215.3473  -47.6088 C   0  0  0  0  0  0  0  0  0  0  0  0
 1265.4323 -214.6078  -47.1043 C   0  0  0  0  0  0  0  0  0  0  0  0
 1265.4998 -215.6107  -46.1080 C   0  0  0  0  0  0  0  0  0  0  0  0
 1263.2544 -216.3276  -46.6657 C   0  0  0  0  0  0  0  0  0  0  0  0
 1265.9949 -217.0260  -44.5281 C   0  0  0  0  0  0  0  0  0  0  0  0
 1261.9227 -212.1348  -47.0946 C   0  0  0  0  0  0  0  0  0  0  0  0
 1261.7041 -209.5319  -50.4436 C   0  0  0  0  0  0  0  0  0  0  0  0
 1261.8965 -215.1581  -48.3735 C   0  0  0  0  0  0  0  0  0  0  0  0
 1261.1111 -216.1677  -48.9134 N   0  0  0  0  0  0  0  0  0  0  0  0
 1260.0380 -215.5517  -49.4859 C   0  0  0  0  0  0  0  0  0  0  0  0
 1260.0558 -214.2529  -49.3433 N   0  0  0  0  0  0  0  0  0  0  0  0
 1261.2311 -213.9738  -48.6580 C   0  0  0  0  0  0  0  0  0  0  0  0
 1261.5892 -212.5630  -48.3781 C   0  0  0  0  0  0  0  0  0  0  0  0
 1261.5621 -211.7343  -49.4369 N   0  0  0  0  0  0  0  0  0  0  0  0
 1261.8514 -210.4311  -49.2520 C   0  0  0  0  0  0  0  0  0  0  0  0
 1262.2123 -209.9306  -47.9942 C   0  0  0  0  0  0  0  0  0  0  0  0
 1262.2556 -210.7956  -46.9109 C   0  0  0  0  0  0  0  0  0  0  0  0
 1262.3368 -218.0766  -49.9046 C   0  0  2  0  0  0  0  0  0  0  0  0
 1263.3219 -217.1521  -50.0353 F   0  0  0  0  0  0  0  0  0  0  0  0
 1261.7075 -218.0646  -51.1020 F   0  0  0  0  0  0  0  0  0  0  0  0
 1264.3962 -216.4517  -45.8985 N   0  0  0  0  0  0  0  0  0  0  0  0
 1266.4722 -215.9697  -45.2702 N   0  0  0  0  0  0  0  0  0  0  0  0
 1264.7261 -217.3364  -44.8861 C   0  0  0  0  0  0  0  0  0  0  0  0
  1 11  1  6
  1 20  1  0
  2  3  1  0
  2  4  2  0
  3  6  2  0
  3 10  1  0
  4  5  1  0
  5 23  1  0
  5 24  2  0
  6 23  1  0
  7 24  1  0
  7 25  2  0
  8 15  2  0
  8 19  1  0
  9 17  1  6
 10 11  1  0
 10 14  2  0
 11 12  1  0
 12 13  2  0
 13 14  1  0
 14 15  1  0
 15 16  1  0
 16 17  2  0
 17 18  1  0
 18 19  2  0
 20 21  1  6
 20 22  1  0
 23 25  1  0
M  END
$$$$
