
     RDKit          3D

 25 28  0  0  0  0  0  0  0  0999 V2000
 -408.9881   18.5123-2091.6743 C   0  0  0  0  0  0  0  0  0  0  0  0
 -407.4809   21.2442-2091.5684 C   0  0  0  0  0  0  0  0  0  0  0  0
 -408.0266   21.1656-2090.2334 C   0  0  0  0  0  0  0  0  0  0  0  0
 -406.3445   21.9639-2091.8374 C   0  0  0  0  0  0  0  0  0  0  0  0
 -405.7021   22.6427-2090.7737 C   0  0  0  0  0  0  0  0  0  0  0  0
 -407.3630   21.8014-2089.2234 C   0  0  0  0  0  0  0  0  0  0  0  0
 -404.4323   23.7850-2089.4233 C   0  0  0  0  0  0  0  0  0  0  0  0
 -409.4840   22.8391-2088.0012 C   0  0  0  0  0  0  0  0  0  0  0  0
 -412.7303   22.4315-2085.2915 C   0  0  0  0  0  0  0  0  0  0  0  0
 -409.2772   20.4256-2089.9807 C   0  0  0  0  0  0  0  0  0  0  0  0
 -409.6900   19.2748-2090.6387 N   0  0  0  0  0  0  0  0  0  0  0  0
 -410.8660   18.9037-2090.0579 C   0  0  0  0  0  0  0  0  0  0  0  0
 -411.2283   19.6940-2089.0828 N   0  0  0  0  0  0  0  0  0  0  0  0
 -410.2495   20.6773-2089.0217 C   0  0  0  0  0  0  0  0  0  0  0  0
 -410.3897   21.7812-2088.0422 C   0  0  0  0  0  0  0  0  0  0  0  0
 -411.4359   21.6858-2087.2041 N   0  0  0  0  0  0  0  0  0  0  0  0
 -411.6107   22.6407-2086.2686 C   0  0  0  0  0  0  0  0  0  0  0  0
 -410.7509   23.7428-2086.1750 C   0  0  0  0  0  0  0  0  0  0  0  0
 -409.6850   23.8430-2087.0571 C   0  0  0  0  0  0  0  0  0  0  0  0
 -407.4392   18.5786-2091.4001 C   0  0  2  0  0  0  0  0  0  0  0  0
 -407.1917   19.2329-2090.2373 F   0  0  0  0  0  0  0  0  0  0  0  0
 -406.8924   19.3690-2092.3525 F   0  0  0  0  0  0  0  0  0  0  0  0
 -406.2341   22.5558-2089.4792 N   0  0  0  0  0  0  0  0  0  0  0  0
 -404.6012   23.3912-2090.7314 N   0  0  0  0  0  0  0  0  0  0  0  0
 -405.4196   23.2951-2088.6384 C   0  0  0  0  0  0  0  0  0  0  0  0
  1 11  1  6
  1 20  1  0
  2  3  1  0
  2  4  2  0
  3  6  2  0
  3 10  1  0
  4  5  1  0
  5 23  1  0
  5 24  2  0
  6 23  1  0
  7 24  1  0
  7 25  2  0
  8 15  2  0
  8 19  1  0
  9 17  1  6
 10 11  1  0
 10 14  2  0
 11 12  1  0
 12 13  2  0
 13 14  1  0
 14 15  1  0
 15 16  1  0
 16 17  2  0
 17 18  1  0
 18 19  2  0
 20 21  1  1
 20 22  1  0
 23 25  1  0
M  END
$$$$
