
     RDKit          3D

 25 28  0  0  0  0  0  0  0  0999 V2000
-1177.8546  766.2158  -58.9650 C   0  0  0  0  0  0  0  0  0  0  0  0
-1177.8287  769.1164  -59.6359 C   0  0  0  0  0  0  0  0  0  0  0  0
-1179.0066  769.1630  -58.8014 C   0  0  0  0  0  0  0  0  0  0  0  0
-1177.1891  770.2609  -60.0394 C   0  0  0  0  0  0  0  0  0  0  0  0
-1177.7074  771.5110  -59.6236 C   0  0  0  0  0  0  0  0  0  0  0  0
-1179.4587  770.3824  -58.3882 C   0  0  0  0  0  0  0  0  0  0  0  0
-1178.1753  773.5909  -59.1793 C   0  0  0  0  0  0  0  0  0  0  0  0
-1182.5397  769.6111  -58.5097 C   0  0  0  0  0  0  0  0  0  0  0  0
-1183.6438  769.8063  -54.4133 C   0  0  0  0  0  0  0  0  0  0  0  0
-1179.7035  767.9196  -58.4231 C   0  0  0  0  0  0  0  0  0  0  0  0
-1179.1873  766.6343  -58.5225 N   0  0  0  0  0  0  0  0  0  0  0  0
-1180.1404  765.8001  -58.0185 C   0  0  0  0  0  0  0  0  0  0  0  0
-1181.2004  766.4321  -57.5899 N   0  0  0  0  0  0  0  0  0  0  0  0
-1180.9595  767.7745  -57.8498 C   0  0  0  0  0  0  0  0  0  0  0  0
-1182.0060  768.7745  -57.5313 C   0  0  0  0  0  0  0  0  0  0  0  0
-1182.3939  768.8215  -56.2443 N   0  0  0  0  0  0  0  0  0  0  0  0
-1183.3239  769.7256  -55.8770 C   0  0  0  0  0  0  0  0  0  0  0  0
-1183.9171  770.5878  -56.8073 C   0  0  0  0  0  0  0  0  0  0  0  0
-1183.5244  770.5207  -58.1358 C   0  0  0  0  0  0  0  0  0  0  0  0
-1178.0027  765.0249  -59.9846 C   0  0  2  0  0  0  0  0  0  0  0  0
-1179.1494  764.3386  -59.7479 F   0  0  0  0  0  0  0  0  0  0  0  0
-1177.0195  764.1356  -59.7146 F   0  0  0  0  0  0  0  0  0  0  0  0
-1178.8478  771.5483  -58.8077 N   0  0  0  0  0  0  0  0  0  0  0  0
-1177.3013  772.7607  -59.8431 N   0  0  0  0  0  0  0  0  0  0  0  0
-1179.1351  772.8773  -58.5445 C   0  0  0  0  0  0  0  0  0  0  0  0
  1 11  1  6
  1 20  1  0
  2  3  1  0
  2  4  2  0
  3  6  2  0
  3 10  1  0
  4  5  1  0
  5 23  1  0
  5 24  2  0
  6 23  1  0
  7 24  1  0
  7 25  2  0
  8 15  2  0
  8 19  1  0
  9 17  1  6
 10 11  1  0
 10 14  2  0
 11 12  1  0
 12 13  2  0
 13 14  1  0
 14 15  1  0
 15 16  1  0
 16 17  2  0
 17 18  1  0
 18 19  2  0
 20 21  1  1
 20 22  1  0
 23 25  1  0
M  END
$$$$
