
     RDKit          3D

 25 28  0  0  0  0  0  0  0  0999 V2000
  346.3244 -473.0469 -182.2752 C   0  0  0  0  0  0  0  0  0  0  0  0
  345.4631 -469.3090 -180.3477 C   0  0  0  0  0  0  0  0  0  0  0  0
  344.9638 -470.4389 -181.0972 C   0  0  0  0  0  0  0  0  0  0  0  0
  345.0429 -469.0560 -179.0665 C   0  0  0  0  0  0  0  0  0  0  0  0
  344.0969 -469.9288 -178.4771 C   0  0  0  0  0  0  0  0  0  0  0  0
  344.0806 -471.2811 -180.4866 C   0  0  0  0  0  0  0  0  0  0  0  0
  342.6930 -471.0366 -177.2338 C   0  0  0  0  0  0  0  0  0  0  0  0
  345.3503 -467.3496 -183.1686 C   0  0  0  0  0  0  0  0  0  0  0  0
  341.5399 -467.0930 -185.0272 C   0  0  0  0  0  0  0  0  0  0  0  0
  345.3944 -470.6589 -182.4904 C   0  0  0  0  0  0  0  0  0  0  0  0
  346.0082 -471.8032 -182.9822 N   0  0  0  0  0  0  0  0  0  0  0  0
  346.1818 -471.5988 -184.3186 C   0  0  0  0  0  0  0  0  0  0  0  0
  345.7187 -470.4468 -184.7260 N   0  0  0  0  0  0  0  0  0  0  0  0
  345.2301 -469.8225 -183.5861 C   0  0  0  0  0  0  0  0  0  0  0  0
  344.6762 -468.4517 -183.6911 C   0  0  0  0  0  0  0  0  0  0  0  0
  343.4879 -468.3497 -184.3119 N   0  0  0  0  0  0  0  0  0  0  0  0
  342.9111 -467.1363 -184.4203 C   0  0  0  0  0  0  0  0  0  0  0  0
  343.5363 -465.9806 -183.9345 C   0  0  0  0  0  0  0  0  0  0  0  0
  344.7704 -466.0920 -183.3121 C   0  0  0  0  0  0  0  0  0  0  0  0
  347.0607 -474.0262 -183.2636 C   0  0  2  0  0  0  0  0  0  0  0  0
  347.2429 -475.2385 -182.6816 F   0  0  0  0  0  0  0  0  0  0  0  0
  348.3141 -473.5516 -183.4459 F   0  0  0  0  0  0  0  0  0  0  0  0
  343.6219 -471.0280 -179.2083 N   0  0  0  0  0  0  0  0  0  0  0  0
  343.5280 -469.9431 -177.2722 N   0  0  0  0  0  0  0  0  0  0  0  0
  342.7255 -471.7129 -178.4059 C   0  0  0  0  0  0  0  0  0  0  0  0
  1 11  1  6
  1 20  1  0
  2  3  1  0
  2  4  2  0
  3  6  2  0
  3 10  1  0
  4  5  1  0
  5 23  1  0
  5 24  2  0
  6 23  1  0
  7 24  1  0
  7 25  2  0
  8 15  2  0
  8 19  1  0
  9 17  1  6
 10 11  1  0
 10 14  2  0
 11 12  1  0
 12 13  2  0
 13 14  1  0
 14 15  1  0
 15 16  1  0
 16 17  2  0
 17 18  1  0
 18 19  2  0
 20 21  1  1
 20 22  1  0
 23 25  1  0
M  END
$$$$
