
     RDKit          3D

 25 28  0  0  0  0  0  0  0  0999 V2000
 1953.7905 1086.0001 1232.6814 C   0  0  0  0  0  0  0  0  0  0  0  0
 1956.3126 1087.0087 1231.3733 C   0  0  0  0  0  0  0  0  0  0  0  0
 1955.7379 1086.3728 1230.2094 C   0  0  0  0  0  0  0  0  0  0  0  0
 1957.3219 1087.9323 1231.2611 C   0  0  0  0  0  0  0  0  0  0  0  0
 1957.8040 1088.2579 1229.9708 C   0  0  0  0  0  0  0  0  0  0  0  0
 1956.2004 1086.7377 1228.9789 C   0  0  0  0  0  0  0  0  0  0  0  0
 1958.7830 1089.0327 1228.1868 C   0  0  0  0  0  0  0  0  0  0  0  0
 1956.0552 1083.4524 1227.9370 C   0  0  0  0  0  0  0  0  0  0  0  0
 1953.5266 1084.5101 1224.6925 C   0  0  0  0  0  0  0  0  0  0  0  0
 1954.6892 1085.3474 1230.3616 C   0  0  0  0  0  0  0  0  0  0  0  0
 1953.8591 1085.1886 1231.4630 N   0  0  0  0  0  0  0  0  0  0  0  0
 1953.0133 1084.1638 1231.1587 C   0  0  0  0  0  0  0  0  0  0  0  0
 1953.2115 1083.6719 1229.9645 N   0  0  0  0  0  0  0  0  0  0  0  0
 1954.2788 1084.3914 1229.4429 C   0  0  0  0  0  0  0  0  0  0  0  0
 1954.8026 1084.0404 1228.1011 C   0  0  0  0  0  0  0  0  0  0  0  0
 1953.9952 1084.3346 1227.0665 N   0  0  0  0  0  0  0  0  0  0  0  0
 1954.4187 1084.0682 1225.8143 C   0  0  0  0  0  0  0  0  0  0  0  0
 1955.6580 1083.4615 1225.5718 C   0  0  0  0  0  0  0  0  0  0  0  0
 1956.4767 1083.1455 1226.6459 C   0  0  0  0  0  0  0  0  0  0  0  0
 1952.2848 1086.1366 1233.1228 C   0  0  2  0  0  0  0  0  0  0  0  0
 1951.4913 1085.3568 1232.3469 F   0  0  0  0  0  0  0  0  0  0  0  0
 1951.8925 1087.4000 1232.8378 F   0  0  0  0  0  0  0  0  0  0  0  0
 1957.2371 1087.6415 1228.8451 N   0  0  0  0  0  0  0  0  0  0  0  0
 1958.7438 1089.1080 1229.5598 N   0  0  0  0  0  0  0  0  0  0  0  0
 1957.8783 1088.1390 1227.7236 C   0  0  0  0  0  0  0  0  0  0  0  0
  1 11  1  6
  1 20  1  0
  2  3  1  0
  2  4  2  0
  3  6  2  0
  3 10  1  0
  4  5  1  0
  5 23  1  0
  5 24  2  0
  6 23  1  0
  7 24  1  0
  7 25  2  0
  8 15  2  0
  8 19  1  0
  9 17  1  6
 10 11  1  0
 10 14  2  0
 11 12  1  0
 12 13  2  0
 13 14  1  0
 14 15  1  0
 15 16  1  0
 16 17  2  0
 17 18  1  0
 18 19  2  0
 20 21  1  6
 20 22  1  0
 23 25  1  0
M  END
$$$$
