
     RDKit          3D

  9 10  0  0  0  0  0  0  0  0999 V2000
 2407.1079-2815.2686-3242.9600 C   0  0  0  0  0  0  0  0  0  0  0  0
 2406.7690-2814.5730-3244.1335 C   0  0  0  0  0  0  0  0  0  0  0  0
 2407.3528-2814.9692-3245.3389 C   0  0  0  0  0  0  0  0  0  0  0  0
 2408.2466-2816.0266-3245.3550 C   0  0  0  0  0  0  0  0  0  0  0  0
 2408.5720-2816.6985-3244.1836 C   0  0  0  0  0  0  0  0  0  0  0  0
 2408.0093-2816.3281-3242.9717 C   0  0  0  0  0  0  0  0  0  0  0  0
 2406.4062-2814.6882-3241.9514 N   0  0  0  0  0  0  0  0  0  0  0  0
 2405.8467-2813.5842-3243.7034 C   0  0  0  0  0  0  0  0  0  0  0  0
 2405.6338-2813.6565-3242.4055 N   0  0  0  0  0  0  0  0  0  0  0  0
  1  2  1  0
  1  6  2  0
  1  7  1  0
  2  3  2  0
  2  8  1  0
  3  4  1  0
  4  5  2  0
  5  6  1  0
  7  9  1  0
  8  9  2  0
M  END
$$$$
