
     RDKit          3D

  9 10  0  0  0  0  0  0  0  0999 V2000
    5.7714 -133.3899 -185.3373 C   0  0  0  0  0  0  0  0  0  0  0  0
    5.5618 -132.0981 -185.8516 C   0  0  0  0  0  0  0  0  0  0  0  0
    4.5221 -131.3286 -185.3261 C   0  0  0  0  0  0  0  0  0  0  0  0
    3.7252 -131.8460 -184.3192 C   0  0  0  0  0  0  0  0  0  0  0  0
    3.9453 -133.1269 -183.8275 C   0  0  0  0  0  0  0  0  0  0  0  0
    4.9693 -133.9155 -184.3297 C   0  0  0  0  0  0  0  0  0  0  0  0
    6.8303 -133.9070 -186.0136 N   0  0  0  0  0  0  0  0  0  0  0  0
    6.5651 -131.9480 -186.8441 C   0  0  0  0  0  0  0  0  0  0  0  0
    7.3168 -133.0244 -186.9367 N   0  0  0  0  0  0  0  0  0  0  0  0
  1  2  1  0
  1  6  2  0
  1  7  1  0
  2  3  2  0
  2  8  1  0
  3  4  1  0
  4  5  2  0
  5  6  1  0
  7  9  1  0
  8  9  2  0
M  END
$$$$
