
     RDKit          3D

  9 10  0  0  0  0  0  0  0  0999 V2000
 4239.9038-1841.0460 2892.4236 C   0  0  0  0  0  0  0  0  0  0  0  0
 4239.5498-1841.1295 2891.0645 C   0  0  0  0  0  0  0  0  0  0  0  0
 4238.7422-1842.1876 2890.6467 C   0  0  0  0  0  0  0  0  0  0  0  0
 4238.3027-1843.1243 2891.5684 C   0  0  0  0  0  0  0  0  0  0  0  0
 4238.6665-1843.0258 2892.9067 C   0  0  0  0  0  0  0  0  0  0  0  0
 4239.4702-1841.9878 2893.3508 C   0  0  0  0  0  0  0  0  0  0  0  0
 4240.6792-1839.9386 2892.5525 N   0  0  0  0  0  0  0  0  0  0  0  0
 4240.1841-1840.0089 2890.4675 C   0  0  0  0  0  0  0  0  0  0  0  0
 4240.8521-1839.3031 2891.3545 N   0  0  0  0  0  0  0  0  0  0  0  0
  1  2  1  0
  1  6  2  0
  1  7  1  0
  2  3  2  0
  2  8  1  0
  3  4  1  0
  4  5  2  0
  5  6  1  0
  7  9  1  0
  8  9  2  0
M  END
$$$$
