
     RDKit          3D

  9 10  0  0  0  0  0  0  0  0999 V2000
  420.8551-2364.4355-1944.8691 C   0  0  0  0  0  0  0  0  0  0  0  0
  420.9405-2365.1184-1943.6434 C   0  0  0  0  0  0  0  0  0  0  0  0
  421.0503-2366.5105-1943.6581 C   0  0  0  0  0  0  0  0  0  0  0  0
  421.0732-2367.1848-1944.8665 C   0  0  0  0  0  0  0  0  0  0  0  0
  420.9828-2366.4927-1946.0679 C   0  0  0  0  0  0  0  0  0  0  0  0
  420.8719-2365.1104-1946.0857 C   0  0  0  0  0  0  0  0  0  0  0  0
  420.7610-2363.1138-1944.5692 N   0  0  0  0  0  0  0  0  0  0  0  0
  420.8851-2364.0916-1942.6649 C   0  0  0  0  0  0  0  0  0  0  0  0
  420.7792-2362.9026-1943.2191 N   0  0  0  0  0  0  0  0  0  0  0  0
  1  2  1  0
  1  6  2  0
  1  7  1  0
  2  3  2  0
  2  8  1  0
  3  4  1  0
  4  5  2  0
  5  6  1  0
  7  9  1  0
  8  9  2  0
M  END
$$$$
