
     RDKit          3D

  9 10  0  0  0  0  0  0  0  0999 V2000
-3969.4958  316.6631 1204.3483 C   0  0  0  0  0  0  0  0  0  0  0  0
-3970.6448  316.9306 1205.1128 C   0  0  0  0  0  0  0  0  0  0  0  0
-3971.6208  315.9385 1205.2246 C   0  0  0  0  0  0  0  0  0  0  0  0
-3971.4404  314.7221 1204.5878 C   0  0  0  0  0  0  0  0  0  0  0  0
-3970.2996  314.4786 1203.8326 C   0  0  0  0  0  0  0  0  0  0  0  0
-3969.3137  315.4449 1203.7020 C   0  0  0  0  0  0  0  0  0  0  0  0
-3968.7231  317.7793 1204.4093 N   0  0  0  0  0  0  0  0  0  0  0  0
-3970.4504  318.2535 1205.5881 C   0  0  0  0  0  0  0  0  0  0  0  0
-3969.3076  318.7536 1205.1687 N   0  0  0  0  0  0  0  0  0  0  0  0
  1  2  1  0
  1  6  2  0
  1  7  1  0
  2  3  2  0
  2  8  1  0
  3  4  1  0
  4  5  2  0
  5  6  1  0
  7  9  1  0
  8  9  2  0
M  END
$$$$
