
     RDKit          3D

  9 10  0  0  0  0  0  0  0  0999 V2000
-1379.1334 1791.4611  193.1349 C   0  0  0  0  0  0  0  0  0  0  0  0
-1377.7446 1791.5050  193.3503 C   0  0  0  0  0  0  0  0  0  0  0  0
-1376.9099 1790.7954  192.4853 C   0  0  0  0  0  0  0  0  0  0  0  0
-1377.4587 1790.0688  191.4425 C   0  0  0  0  0  0  0  0  0  0  0  0
-1378.8346 1790.0337  191.2487 C   0  0  0  0  0  0  0  0  0  0  0  0
-1379.6892 1790.7275  192.0916 C   0  0  0  0  0  0  0  0  0  0  0  0
-1379.6986 1792.2289  194.1029 N   0  0  0  0  0  0  0  0  0  0  0  0
-1377.5923 1792.3375  194.4896 C   0  0  0  0  0  0  0  0  0  0  0  0
-1378.7551 1792.7656  194.9334 N   0  0  0  0  0  0  0  0  0  0  0  0
  1  2  1  0
  1  6  2  0
  1  7  1  0
  2  3  2  0
  2  8  1  0
  3  4  1  0
  4  5  2  0
  5  6  1  0
  7  9  1  0
  8  9  2  0
M  END
$$$$
