
     RDKit          3D

  9 10  0  0  0  0  0  0  0  0999 V2000
 1062.3967 -505.2273-3716.7632 C   0  0  0  0  0  0  0  0  0  0  0  0
 1061.0160 -505.4161-3716.5735 C   0  0  0  0  0  0  0  0  0  0  0  0
 1060.5918 -506.3432-3715.6201 C   0  0  0  0  0  0  0  0  0  0  0  0
 1061.5270 -507.0522-3714.8872 C   0  0  0  0  0  0  0  0  0  0  0  0
 1062.8871 -506.8550-3715.0923 C   0  0  0  0  0  0  0  0  0  0  0  0
 1063.3398 -505.9418-3716.0320 C   0  0  0  0  0  0  0  0  0  0  0  0
 1062.5278 -504.2829-3717.7312 N   0  0  0  0  0  0  0  0  0  0  0  0
 1060.4104 -504.5223-3717.4946 C   0  0  0  0  0  0  0  0  0  0  0  0
 1061.3115 -503.8508-3718.1804 N   0  0  0  0  0  0  0  0  0  0  0  0
  1  2  1  0
  1  6  2  0
  1  7  1  0
  2  3  2  0
  2  8  1  0
  3  4  1  0
  4  5  2  0
  5  6  1  0
  7  9  1  0
  8  9  2  0
M  END
$$$$
