
     RDKit          3D

  9 10  0  0  0  0  0  0  0  0999 V2000
    5.0094-1217.3606-3799.1758 C   0  0  0  0  0  0  0  0  0  0  0  0
    5.1821-1218.2711-3800.2334 C   0  0  0  0  0  0  0  0  0  0  0  0
    6.3528-1218.2040-3800.9902 C   0  0  0  0  0  0  0  0  0  0  0  0
    7.3120-1217.2516-3800.6899 C   0  0  0  0  0  0  0  0  0  0  0  0
    7.1209-1216.3574-3799.6436 C   0  0  0  0  0  0  0  0  0  0  0  0
    5.9682-1216.3992-3798.8743 C   0  0  0  0  0  0  0  0  0  0  0  0
    3.8056-1217.6458-3798.6135 N   0  0  0  0  0  0  0  0  0  0  0  0
    4.0037-1219.0621-3800.2112 C   0  0  0  0  0  0  0  0  0  0  0  0
    3.1892-1218.6877-3799.2476 N   0  0  0  0  0  0  0  0  0  0  0  0
  1  2  1  0
  1  6  2  0
  1  7  1  0
  2  3  2  0
  2  8  1  0
  3  4  1  0
  4  5  2  0
  5  6  1  0
  7  9  1  0
  8  9  2  0
M  END
$$$$
