
     RDKit          3D

  9 10  0  0  0  0  0  0  0  0999 V2000
 -402.6021 -181.3627 -335.9836 C   0  0  0  0  0  0  0  0  0  0  0  0
 -402.9647 -181.8071 -334.6997 C   0  0  0  0  0  0  0  0  0  0  0  0
 -403.1864 -183.1711 -334.5010 C   0  0  0  0  0  0  0  0  0  0  0  0
 -403.0466 -184.0516 -335.5601 C   0  0  0  0  0  0  0  0  0  0  0  0
 -402.6922 -183.5923 -336.8228 C   0  0  0  0  0  0  0  0  0  0  0  0
 -402.4663 -182.2435 -337.0517 C   0  0  0  0  0  0  0  0  0  0  0  0
 -402.4477 -180.0157 -335.8961 N   0  0  0  0  0  0  0  0  0  0  0  0
 -402.9992 -180.6248 -333.9155 C   0  0  0  0  0  0  0  0  0  0  0  0
 -402.6909 -179.5631 -334.6297 N   0  0  0  0  0  0  0  0  0  0  0  0
  1  2  1  0
  1  6  2  0
  1  7  1  0
  2  3  2  0
  2  8  1  0
  3  4  1  0
  4  5  2  0
  5  6  1  0
  7  9  1  0
  8  9  2  0
M  END
$$$$
