
     RDKit          3D

  9 10  0  0  0  0  0  0  0  0999 V2000
 5732.4995 1032.5651-2223.2329 C   0  0  0  0  0  0  0  0  0  0  0  0
 5733.6836 1032.1133-2222.6265 C   0  0  0  0  0  0  0  0  0  0  0  0
 5733.6914 1030.8541-2222.0232 C   0  0  0  0  0  0  0  0  0  0  0  0
 5732.5410 1030.0814-2222.0339 C   0  0  0  0  0  0  0  0  0  0  0  0
 5731.3784 1030.5479-2222.6340 C   0  0  0  0  0  0  0  0  0  0  0  0
 5731.3413 1031.7944-2223.2400 C   0  0  0  0  0  0  0  0  0  0  0  0
 5732.7681 1033.7982-2223.7351 N   0  0  0  0  0  0  0  0  0  0  0  0
 5734.6079 1033.1722-2222.8289 C   0  0  0  0  0  0  0  0  0  0  0  0
 5734.0596 1034.1713-2223.4885 N   0  0  0  0  0  0  0  0  0  0  0  0
  1  2  1  0
  1  6  2  0
  1  7  1  0
  2  3  2  0
  2  8  1  0
  3  4  1  0
  4  5  2  0
  5  6  1  0
  7  9  1  0
  8  9  2  0
M  END
$$$$
