
     RDKit          3D

 15 16  0  0  0  0  0  0  0  0999 V2000
  -93.0859  -34.0569  131.5300 C   0  0  0  0  0  0  0  0  0  0  0  0
  -91.7258  -31.8969  134.0840 C   0  0  0  0  0  0  0  0  0  0  0  0
  -95.0430  -37.6175  136.4296 C   0  0  0  0  0  0  0  0  0  0  0  0
  -94.6802  -36.9308  135.1800 N   0  0  0  0  0  0  0  0  0  0  0  0
  -93.5040  -37.0281  134.5756 C   0  0  0  0  0  0  0  0  0  0  0  0
  -93.5652  -36.2643  133.4674 C   0  0  0  0  0  0  0  0  0  0  0  0
  -94.8481  -35.6995  133.4321 C   0  0  0  0  0  0  0  0  0  0  0  0
  -95.4977  -36.1206  134.4664 N   0  0  0  0  0  0  0  0  0  0  0  0
  -95.4213  -34.7485  132.3537 C   0  0  0  0  0  0  0  0  0  0  0  0
  -96.5783  -34.8008  132.1276 O   0  0  0  0  0  0  0  0  0  0  0  0
  -94.5523  -33.8221  131.6010 N   0  0  0  0  0  0  0  0  0  0  0  0
  -92.3738  -32.8263  132.0029 C   0  0  2  0  0  0  0  0  0  0  0  0
  -91.7566  -33.0582  133.5230 C   0  0  0  0  0  0  0  0  0  0  0  0
  -92.7725  -31.0010  133.3185 C   0  0  0  0  0  0  0  0  0  0  0  0
  -93.2137  -31.8307  132.0862 O   0  0  0  0  0  0  0  0  0  0  0  0
  1 11  1  6
 13  2  1  6
  2 14  1  1
  3  4  1  6
  4  5  1  0
  4  8  1  0
  5  6  2  0
  6  7  1  0
  7  8  2  0
  7  9  1  0
  9 10  2  0
  9 11  1  0
 12  1  1  0
 12 13  1  0
 12 15  1  1
 14 15  1  1
M  END
$$$$
