
     RDKit          3D

 15 16  0  0  0  0  0  0  0  0999 V2000
  -20.9725   47.4416  -14.1013 C   0  0  0  0  0  0  0  0  0  0  0  0
  -21.0174   49.5959  -16.9987 C   0  0  0  0  0  0  0  0  0  0  0  0
  -19.5617   51.2643   -8.4224 C   0  0  0  0  0  0  0  0  0  0  0  0
  -19.4398   49.9530   -9.0786 N   0  0  0  0  0  0  0  0  0  0  0  0
  -18.6014   48.9950   -8.7078 C   0  0  0  0  0  0  0  0  0  0  0  0
  -18.7943   47.9563   -9.5439 C   0  0  0  0  0  0  0  0  0  0  0  0
  -19.8008   48.3380  -10.4425 C   0  0  0  0  0  0  0  0  0  0  0  0
  -20.1745   49.5363  -10.1371 N   0  0  0  0  0  0  0  0  0  0  0  0
  -20.3921   47.4935  -11.5971 C   0  0  0  0  0  0  0  0  0  0  0  0
  -21.1411   46.6246  -11.3203 O   0  0  0  0  0  0  0  0  0  0  0  0
  -20.0142   47.7367  -13.0034 N   0  0  0  0  0  0  0  0  0  0  0  0
  -20.4127   47.9664  -15.3884 C   0  0  2  0  0  0  0  0  0  0  0  0
  -21.0168   49.4744  -15.7143 C   0  0  0  0  0  0  0  0  0  0  0  0
  -21.0097   48.1340  -17.5876 C   0  0  0  0  0  0  0  0  0  0  0  0
  -20.7737   47.1951  -16.3775 O   0  0  0  0  0  0  0  0  0  0  0  0
  1 11  1  6
 13  2  1  6
  2 14  1  1
  3  4  1  6
  4  5  1  0
  4  8  1  0
  5  6  2  0
  6  7  1  0
  7  8  2  0
  7  9  1  0
  9 10  2  0
  9 11  1  0
 12  1  1  0
 12 13  1  0
 12 15  1  6
 14 15  1  1
M  END
$$$$
