
     RDKit          3D

 15 16  0  0  0  0  0  0  0  0999 V2000
  -12.9363   60.7269   49.2783 C   0  0  0  0  0  0  0  0  0  0  0  0
   -9.4771   60.2801   48.3448 C   0  0  0  0  0  0  0  0  0  0  0  0
   -7.4567   58.1970   50.3491 C   0  0  0  0  0  0  0  0  0  0  0  0
   -8.7816   58.7922   50.5839 N   0  0  0  0  0  0  0  0  0  0  0  0
   -9.8682   58.1127   50.9240 C   0  0  0  0  0  0  0  0  0  0  0  0
  -10.8684   59.0063   51.0528 C   0  0  0  0  0  0  0  0  0  0  0  0
  -10.3254   60.2686   50.7738 C   0  0  0  0  0  0  0  0  0  0  0  0
   -9.0721   60.1124   50.5025 N   0  0  0  0  0  0  0  0  0  0  0  0
  -11.0643   61.6286   50.7926 C   0  0  0  0  0  0  0  0  0  0  0  0
  -10.5612   62.5242   51.3736 O   0  0  0  0  0  0  0  0  0  0  0  0
  -12.3743   61.8046   50.1348 N   0  0  0  0  0  0  0  0  0  0  0  0
  -11.8078   59.9741   48.6421 C   0  0  2  0  0  0  0  0  0  0  0  0
  -10.3547   60.4599   49.2731 C   0  0  0  0  0  0  0  0  0  0  0  0
  -10.2655   60.2579   46.9802 C   0  0  0  0  0  0  0  0  0  0  0  0
  -11.7669   60.2313   47.3631 O   0  0  0  0  0  0  0  0  0  0  0  0
  1 11  1  6
 13  2  1  6
  2 14  1  1
  3  4  1  6
  4  5  1  0
  4  8  1  0
  5  6  2  0
  6  7  1  0
  7  8  2  0
  7  9  1  0
  9 10  2  0
  9 11  1  0
 12  1  1  0
 12 13  1  0
 12 15  1  6
 14 15  1  1
M  END
$$$$
