
     RDKit          3D

 15 16  0  0  0  0  0  0  0  0999 V2000
   -0.0931   -0.0574 -107.4559 C   0  0  0  0  0  0  0  0  0  0  0  0
    2.2479   -2.7480 -106.8917 C   0  0  0  0  0  0  0  0  0  0  0  0
   -2.9824    1.9370 -103.5105 C   0  0  0  0  0  0  0  0  0  0  0  0
   -2.5884    2.4844 -104.8182 N   0  0  0  0  0  0  0  0  0  0  0  0
   -2.7306    3.7511 -105.1834 C   0  0  0  0  0  0  0  0  0  0  0  0
   -2.2496    3.8566 -106.4376 C   0  0  0  0  0  0  0  0  0  0  0  0
   -1.8044    2.5807 -106.8119 C   0  0  0  0  0  0  0  0  0  0  0  0
   -2.0131    1.7789 -105.8207 N   0  0  0  0  0  0  0  0  0  0  0  0
   -1.1599    2.1738 -108.1591 C   0  0  0  0  0  0  0  0  0  0  0  0
   -1.6095    2.6326 -109.1491 O   0  0  0  0  0  0  0  0  0  0  0  0
   -0.0371    1.2170 -108.2198 N   0  0  0  0  0  0  0  0  0  0  0  0
    1.2860   -0.6379 -107.3783 C   0  0  2  0  0  0  0  0  0  0  0  0
    1.2345   -2.2859 -107.5427 C   0  0  0  0  0  0  0  0  0  0  0  0
    2.6515   -1.6408 -105.8450 C   0  0  0  0  0  0  0  0  0  0  0  0
    1.8062   -0.3933 -106.2065 O   0  0  0  0  0  0  0  0  0  0  0  0
  1 11  1  6
 13  2  1  6
  2 14  1  1
  3  4  1  6
  4  5  1  0
  4  8  1  0
  5  6  2  0
  6  7  1  0
  7  8  2  0
  7  9  1  0
  9 10  2  0
  9 11  1  0
 12  1  1  0
 12 13  1  0
 12 15  1  1
 14 15  1  1
M  END
$$$$
