
     RDKit          3D

 15 16  0  0  0  0  0  0  0  0999 V2000
   50.1652  -25.2193   40.0944 C   0  0  0  0  0  0  0  0  0  0  0  0
   51.0729  -27.1420   43.0128 C   0  0  0  0  0  0  0  0  0  0  0  0
   48.5771  -18.6446   42.1101 C   0  0  0  0  0  0  0  0  0  0  0  0
   49.4637  -19.8128   42.2289 N   0  0  0  0  0  0  0  0  0  0  0  0
   50.2348  -20.0757   43.2750 C   0  0  0  0  0  0  0  0  0  0  0  0
   50.8830  -21.2263   43.0083 C   0  0  0  0  0  0  0  0  0  0  0  0
   50.4587  -21.6486   41.7404 C   0  0  0  0  0  0  0  0  0  0  0  0
   49.6034  -20.7871   41.2987 N   0  0  0  0  0  0  0  0  0  0  0  0
   50.9044  -22.9222   40.9820 C   0  0  0  0  0  0  0  0  0  0  0  0
   52.0517  -23.1983   40.9896 O   0  0  0  0  0  0  0  0  0  0  0  0
   49.9382  -23.7572   40.2409 N   0  0  0  0  0  0  0  0  0  0  0  0
   49.8690  -25.8899   41.4012 C   0  0  2  0  0  0  0  0  0  0  0  0
   51.2600  -26.0990   42.2770 C   0  0  0  0  0  0  0  0  0  0  0  0
   49.9325  -27.9811   42.3200 C   0  0  0  0  0  0  0  0  0  0  0  0
   49.3763  -27.0798   41.1888 O   0  0  0  0  0  0  0  0  0  0  0  0
  1 11  1  6
 13  2  1  6
  2 14  1  1
  3  4  1  6
  4  5  1  0
  4  8  1  0
  5  6  2  0
  6  7  1  0
  7  8  2  0
  7  9  1  0
  9 10  2  0
  9 11  1  0
 12  1  1  0
 12 13  1  0
 12 15  1  6
 14 15  1  1
M  END
$$$$
