
     RDKit          3D

 15 16  0  0  0  0  0  0  0  0999 V2000
  -36.8664   75.6065   60.0750 C   0  0  0  0  0  0  0  0  0  0  0  0
  -38.2403   73.5749   57.4250 C   0  0  0  0  0  0  0  0  0  0  0  0
  -35.9009   74.9230   66.3401 C   0  0  0  0  0  0  0  0  0  0  0  0
  -36.4577   74.1466   65.2212 N   0  0  0  0  0  0  0  0  0  0  0  0
  -37.0940   72.9898   65.3440 C   0  0  0  0  0  0  0  0  0  0  0  0
  -37.4532   72.6034   64.1042 C   0  0  0  0  0  0  0  0  0  0  0  0
  -37.0004   73.5941   63.2214 C   0  0  0  0  0  0  0  0  0  0  0  0
  -36.4132   74.5104   63.9175 N   0  0  0  0  0  0  0  0  0  0  0  0
  -37.1697   73.6233   61.6831 C   0  0  0  0  0  0  0  0  0  0  0  0
  -36.8195   72.6780   61.0693 O   0  0  0  0  0  0  0  0  0  0  0  0
  -37.7213   74.8041   60.9894 N   0  0  0  0  0  0  0  0  0  0  0  0
  -36.8051   74.9228   58.7432 C   0  0  2  0  0  0  0  0  0  0  0  0
  -38.3312   74.6231   58.1715 C   0  0  0  0  0  0  0  0  0  0  0  0
  -36.9390   72.8111   57.8806 C   0  0  0  0  0  0  0  0  0  0  0  0
  -36.2151   73.7649   58.8644 O   0  0  0  0  0  0  0  0  0  0  0  0
  1 11  1  6
 13  2  1  6
  2 14  1  1
  3  4  1  6
  4  5  1  0
  4  8  1  0
  5  6  2  0
  6  7  1  0
  7  8  2  0
  7  9  1  0
  9 10  2  0
  9 11  1  0
 12  1  1  0
 12 13  1  0
 12 15  1  1
 14 15  1  1
M  END
$$$$
