
     RDKit          3D

 45 49  0  0  0  0  0  0  0  0999 V2000
 2133.7385 6197.4146-6806.5596 C   0  0  0  0  0  0  0  0  0  0  0  0
 2132.7456 6198.3906-6811.3472 C   0  0  0  0  0  0  0  0  0  0  0  0
 2133.1604 6197.3223-6810.3237 C   0  0  1  0  0  0  0  0  0  0  0  0
 2132.2654 6198.4189-6808.3691 C   0  0  0  0  0  0  0  0  0  0  0  0
 2133.6499 6198.4106-6812.6182 C   0  0  0  0  0  0  0  0  0  0  0  0
 2133.8782 6197.0586-6813.3457 C   0  0  0  0  0  0  0  0  0  0  0  0
 2134.6357 6197.4155-6810.0649 C   0  0  0  0  0  0  0  0  0  0  0  0
 2136.5955 6198.3330-6809.7700 C   0  0  0  0  0  0  0  0  0  0  0  0
 2141.4407 6192.5923-6811.5229 C   0  0  0  0  0  0  0  0  0  0  0  0
 2137.8809 6196.2979-6810.7661 C   0  0  0  0  0  0  0  0  0  0  0  0
 2131.9626 6196.2983-6801.8530 Cl  0  0  0  0  0  0  0  0  0  0  0  0
 2132.5073 6194.1206-6805.1479 C   0  0  0  0  0  0  0  0  0  0  0  0
 2132.1704 6194.5059-6803.8579 C   0  0  0  0  0  0  0  0  0  0  0  0
 2132.3611 6195.8193-6803.4771 C   0  0  0  0  0  0  0  0  0  0  0  0
 2132.8779 6196.7554-6804.3506 C   0  0  0  0  0  0  0  0  0  0  0  0
 2133.2302 6196.3740-6805.6553 C   0  0  0  0  0  0  0  0  0  0  0  0
 2133.0388 6195.0386-6806.0459 C   0  0  0  0  0  0  0  0  0  0  0  0
 2133.4221 6194.5928-6807.3481 N   0  0  0  0  0  0  0  0  0  0  0  0
 2132.7070 6194.2798-6808.4375 C   0  0  0  0  0  0  0  0  0  0  0  0
 2133.5032 6193.8721-6809.3857 N   0  0  0  0  0  0  0  0  0  0  0  0
 2134.7551 6193.9355-6808.8628 N   0  0  0  0  0  0  0  0  0  0  0  0
 2134.7258 6194.3657-6807.6382 N   0  0  0  0  0  0  0  0  0  0  0  0
 2132.9861 6198.3809-6807.0762 C   0  0  0  0  0  0  0  0  0  0  0  0
 2131.5886 6199.3936-6808.7104 O   0  0  0  0  0  0  0  0  0  0  0  0
 2132.3301 6197.3013-6809.1221 N   0  0  0  0  0  0  0  0  0  0  0  0
 2135.2551 6198.5361-6809.6436 N   0  0  0  0  0  0  0  0  0  0  0  0
 2136.7339 6197.0703-6810.2690 C   0  0  0  0  0  0  0  0  0  0  0  0
 2135.4966 6196.4932-6810.4209 N   0  0  0  0  0  0  0  0  0  0  0  0
 2139.0269 6196.1875-6809.9712 C   0  0  0  0  0  0  0  0  0  0  0  0
 2140.0837 6195.3799-6810.3569 C   0  0  0  0  0  0  0  0  0  0  0  0
 2140.0061 6194.6372-6811.5361 C   0  0  0  0  0  0  0  0  0  0  0  0
 2138.8794 6194.7676-6812.3481 C   0  0  0  0  0  0  0  0  0  0  0  0
 2137.8191 6195.5967-6811.9922 C   0  0  0  0  0  0  0  0  0  0  0  0
 2141.0427 6193.7935-6812.0283 N   0  0  0  0  0  0  0  0  0  0  0  0
 2141.2280 6191.5039-6812.0127 O   0  0  0  0  0  0  0  0  0  0  0  0
 2142.1038 6192.7837-6810.3643 O   0  0  0  0  0  0  0  0  0  0  0  0
 2141.7026 6193.9380-6809.5781 C   0  0  0  0  0  0  0  0  0  0  0  0
 2135.1001 6197.0093-6814.2754 C   0  0  0  0  0  0  0  0  0  0  0  0
 2136.4763 6197.0088-6813.5879 C   0  0  1  0  0  0  0  0  0  0  0  0
 2136.7227 6195.7744-6812.8540 N   0  0  0  0  0  0  0  0  0  0  0  0
 2137.5784 6197.3604-6814.5781 C   0  0  0  0  0  0  0  0  0  0  0  0
 2138.7415 6197.3516-6814.2969 O   0  0  0  0  0  0  0  0  0  0  0  0
 2137.0952 6197.6807-6815.7808 O   0  0  0  0  0  0  0  0  0  0  0  0
 2136.5854 6199.2358-6817.5596 C   0  0  0  0  0  0  0  0  0  0  0  0
 2137.1025 6199.0967-6816.1602 C   0  0  0  0  0  0  0  0  0  0  0  0
  1 16  1  0
  1 23  2  0
  2  3  1  6
  5  2  1  6
  3  7  1  0
  3 25  1  1
  4 23  1  0
  4 24  2  0
  4 25  1  0
  6  5  1  6
  6 38  1  0
  7 26  1  0
  7 28  2  0
  8 26  1  0
  8 27  2  0
  9 34  1  0
  9 35  2  0
  9 36  1  0
 10 27  1  0
 10 29  1  0
 10 33  2  0
 11 14  1  0
 12 13  2  0
 12 17  1  0
 13 14  1  0
 14 15  2  0
 15 16  1  0
 16 17  2  0
 17 18  1  0
 18 19  1  0
 18 22  1  0
 19 20  2  0
 20 21  1  0
 21 22  2  0
 27 28  1  0
 29 30  2  0
 30 31  1  0
 31 32  2  0
 31 34  1  0
 32 33  1  0
 33 40  1  0
 37 36  1  6
 38 39  1  1
 39 40  1  0
 39 41  1  6
 41 42  2  0
 41 43  1  0
 45 43  1  6
 44 45  1  6
M  END
$$$$
