
     RDKit          3D

 45 49  0  0  0  0  0  0  0  0999 V2000
-72896.9922-319856.9062140339.6094 C   0  0  0  0  0  0  0  0  0  0  0  0
-72898.0234-319858.6875140340.2344 C   0  0  0  0  0  0  0  0  0  0  0  0
-72899.5547-319858.8438140340.0312 C   0  0  1  0  0  0  0  0  0  0  0  0
-72899.4297-319856.7812140338.8594 C   0  0  0  0  0  0  0  0  0  0  0  0
-72897.3438-319859.9688140340.8281 C   0  0  0  0  0  0  0  0  0  0  0  0
-72897.6328-319861.2812140340.1562 C   0  0  0  0  0  0  0  0  0  0  0  0
-72900.1562-319859.3125140341.3281 C   0  0  0  0  0  0  0  0  0  0  0  0
-72900.4609-319859.5625140343.4844 C   0  0  0  0  0  0  0  0  0  0  0  0
-72902.8125-319866.4062140345.4688 C   0  0  0  0  0  0  0  0  0  0  0  0
-72901.2969-319862.0312140343.2344 C   0  0  0  0  0  0  0  0  0  0  0  0
-72900.2969-319857.1250140343.5625 Cl  0  0  0  0  0  0  0  0  0  0  0  0
-72896.4375-319855.9688140343.2812 C   0  0  0  0  0  0  0  0  0  0  0  0
-72897.7031-319856.3750140343.8125 C   0  0  0  0  0  0  0  0  0  0  0  0
-72898.7031-319856.8125140342.9062 C   0  0  0  0  0  0  0  0  0  0  0  0
-72898.4844-319856.9375140341.5469 C   0  0  0  0  0  0  0  0  0  0  0  0
-72897.2500-319856.7500140341.0469 C   0  0  0  0  0  0  0  0  0  0  0  0
-72896.1953-319856.1875140341.9062 C   0  0  0  0  0  0  0  0  0  0  0  0
-72894.8750-319855.9688140341.4062 N   0  0  0  0  0  0  0  0  0  0  0  0
-72894.3438-319854.7500140341.0312 C   0  0  0  0  0  0  0  0  0  0  0  0
-72893.1328-319855.0625140340.6094 N   0  0  0  0  0  0  0  0  0  0  0  0
-72892.9453-319856.4688140340.6719 N   0  0  0  0  0  0  0  0  0  0  0  0
-72894.0078-319856.9062140341.1562 N   0  0  0  0  0  0  0  0  0  0  0  0
-72897.9844-319857.0625140338.7188 C   0  0  0  0  0  0  0  0  0  0  0  0
-72899.9062-319855.6250140338.4688 O   0  0  0  0  0  0  0  0  0  0  0  0
-72900.2188-319857.6875140339.4688 N   0  0  0  0  0  0  0  0  0  0  0  0
-72900.0312-319858.7188140342.5000 N   0  0  0  0  0  0  0  0  0  0  0  0
-72900.8594-319860.6562140342.7812 C   0  0  0  0  0  0  0  0  0  0  0  0
-72900.6953-319860.5312140341.4531 N   0  0  0  0  0  0  0  0  0  0  0  0
-72902.3203-319862.1562140344.1719 C   0  0  0  0  0  0  0  0  0  0  0  0
-72902.8125-319863.4062140344.5469 C   0  0  0  0  0  0  0  0  0  0  0  0
-72902.3359-319864.5312140343.9062 C   0  0  0  0  0  0  0  0  0  0  0  0
-72901.2969-319864.4375140343.0000 C   0  0  0  0  0  0  0  0  0  0  0  0
-72900.7500-319863.1875140342.6875 C   0  0  0  0  0  0  0  0  0  0  0  0
-72902.7734-319865.8125140344.2188 N   0  0  0  0  0  0  0  0  0  0  0  0
-72901.9219-319867.0938140345.9531 O   0  0  0  0  0  0  0  0  0  0  0  0
-72904.0000-319866.2188140346.0312 O   0  0  0  0  0  0  0  0  0  0  0  0
-72903.9766-319865.2812140347.1719 C   0  0  0  0  0  0  0  0  0  0  0  0
-72897.3359-319862.5312140341.0312 C   0  0  0  0  0  0  0  0  0  0  0  0
-72898.3125-319862.7500140342.2188 C   0  0  1  0  0  0  0  0  0  0  0  0
-72899.6406-319863.0938140341.7969 N   0  0  0  0  0  0  0  0  0  0  0  0
-72897.7031-319863.7500140343.2188 C   0  0  0  0  0  0  0  0  0  0  0  0
-72897.6719-319864.9375140343.0312 O   0  0  0  0  0  0  0  0  0  0  0  0
-72897.2656-319863.1250140344.3281 O   0  0  0  0  0  0  0  0  0  0  0  0
-72898.4531-319864.9375140345.4375 C   0  0  0  0  0  0  0  0  0  0  0  0
-72897.3906-319863.8750140345.6094 C   0  0  0  0  0  0  0  0  0  0  0  0
  1 16  1  0
  1 23  2  0
  2  3  1  6
  5  2  1  6
  3  7  1  0
  3 25  1  1
  4 23  1  0
  4 24  2  0
  4 25  1  0
  6  5  1  6
  6 38  1  0
  7 26  1  0
  7 28  2  0
  8 26  1  0
  8 27  2  0
  9 34  1  0
  9 35  2  0
  9 36  1  0
 10 27  1  0
 10 29  1  0
 10 33  2  0
 11 14  1  0
 12 13  2  0
 12 17  1  0
 13 14  1  0
 14 15  2  0
 15 16  1  0
 16 17  2  0
 17 18  1  0
 18 19  1  0
 18 22  1  0
 19 20  2  0
 20 21  1  0
 21 22  2  0
 27 28  1  0
 29 30  2  0
 30 31  1  0
 31 32  2  0
 31 34  1  0
 32 33  1  0
 33 40  1  0
 37 36  1  6
 38 39  1  1
 39 40  1  0
 39 41  1  1
 41 42  2  0
 41 43  1  0
 45 43  1  6
 44 45  1  6
M  END
$$$$
