
     RDKit          3D

 45 49  0  0  0  0  0  0  0  0999 V2000
  164.8194   87.0323 -173.7161 C   0  0  0  0  0  0  0  0  0  0  0  0
  166.0730   88.1252 -177.2614 C   0  0  0  0  0  0  0  0  0  0  0  0
  166.7355   86.7904 -176.8888 C   0  0  1  0  0  0  0  0  0  0  0  0
  166.7327   85.7075 -174.7316 C   0  0  0  0  0  0  0  0  0  0  0  0
  165.6105   88.1903 -178.7502 C   0  0  0  0  0  0  0  0  0  0  0  0
  164.7391   87.0179 -179.2732 C   0  0  0  0  0  0  0  0  0  0  0  0
  167.7836   86.4458 -177.9065 C   0  0  0  0  0  0  0  0  0  0  0  0
  169.3995   86.7451 -179.3455 C   0  0  0  0  0  0  0  0  0  0  0  0
  168.2924   80.5171 -183.8062 C   0  0  0  0  0  0  0  0  0  0  0  0
  168.6860   84.7161 -180.8163 C   0  0  0  0  0  0  0  0  0  0  0  0
  168.4965   88.0924 -170.2642 Cl  0  0  0  0  0  0  0  0  0  0  0  0
  165.7988   90.3441 -172.1518 C   0  0  0  0  0  0  0  0  0  0  0  0
  166.8461   89.9386 -171.3366 C   0  0  0  0  0  0  0  0  0  0  0  0
  167.2004   88.6048 -171.3067 C   0  0  0  0  0  0  0  0  0  0  0  0
  166.5357   87.6646 -172.0688 C   0  0  0  0  0  0  0  0  0  0  0  0
  165.4695   88.0616 -172.8920 C   0  0  0  0  0  0  0  0  0  0  0  0
  165.1056   89.4180 -172.9249 C   0  0  0  0  0  0  0  0  0  0  0  0
  163.9992   89.8635 -173.7123 N   0  0  0  0  0  0  0  0  0  0  0  0
  162.8627   90.4932 -173.3862 C   0  0  0  0  0  0  0  0  0  0  0  0
  162.1257   90.6500 -174.4513 N   0  0  0  0  0  0  0  0  0  0  0  0
  162.8350   90.0973 -175.4701 N   0  0  0  0  0  0  0  0  0  0  0  0
  163.9626   89.6187 -175.0437 N   0  0  0  0  0  0  0  0  0  0  0  0
  165.4108   85.9056 -174.0978 C   0  0  0  0  0  0  0  0  0  0  0  0
  167.4164   84.7000 -174.5187 O   0  0  0  0  0  0  0  0  0  0  0  0
  167.1850   86.7205 -175.5009 N   0  0  0  0  0  0  0  0  0  0  0  0
  168.8169   87.2509 -178.2233 N   0  0  0  0  0  0  0  0  0  0  0  0
  168.6812   85.6279 -179.6645 C   0  0  0  0  0  0  0  0  0  0  0  0
  167.6890   85.4344 -178.7352 N   0  0  0  0  0  0  0  0  0  0  0  0
  169.8945   84.1480 -181.2319 C   0  0  0  0  0  0  0  0  0  0  0  0
  169.9227   83.2000 -182.2423 C   0  0  0  0  0  0  0  0  0  0  0  0
  168.7359   82.7782 -182.8422 C   0  0  0  0  0  0  0  0  0  0  0  0
  167.5314   83.3653 -182.4540 C   0  0  0  0  0  0  0  0  0  0  0  0
  167.4855   84.3392 -181.4604 C   0  0  0  0  0  0  0  0  0  0  0  0
  168.6601   81.8259 -183.8984 N   0  0  0  0  0  0  0  0  0  0  0  0
  167.5341   79.9325 -184.5505 O   0  0  0  0  0  0  0  0  0  0  0  0
  168.8889   79.9497 -182.7383 O   0  0  0  0  0  0  0  0  0  0  0  0
  169.8034   78.8546 -183.0221 C   0  0  0  0  0  0  0  0  0  0  0  0
  164.6916   86.8615 -180.8006 C   0  0  0  0  0  0  0  0  0  0  0  0
  165.9834   86.3609 -181.4714 C   0  0  1  0  0  0  0  0  0  0  0  0
  166.2755   84.9742 -181.1292 N   0  0  0  0  0  0  0  0  0  0  0  0
  165.9537   86.6258 -182.9710 C   0  0  0  0  0  0  0  0  0  0  0  0
  165.3676   87.5453 -183.4630 O   0  0  0  0  0  0  0  0  0  0  0  0
  166.6469   85.7160 -183.6598 O   0  0  0  0  0  0  0  0  0  0  0  0
  168.5492   86.9675 -184.4670 C   0  0  0  0  0  0  0  0  0  0  0  0
  168.1102   85.8093 -183.6254 C   0  0  0  0  0  0  0  0  0  0  0  0
  1 16  1  0
  1 23  2  0
  2  3  1  6
  5  2  1  6
  3  7  1  0
  3 25  1  1
  4 23  1  0
  4 24  2  0
  4 25  1  0
  6  5  1  6
  6 38  1  0
  7 26  1  0
  7 28  2  0
  8 26  1  0
  8 27  2  0
  9 34  1  0
  9 35  2  0
  9 36  1  0
 10 27  1  0
 10 29  1  0
 10 33  2  0
 11 14  1  0
 12 13  2  0
 12 17  1  0
 13 14  1  0
 14 15  2  0
 15 16  1  0
 16 17  2  0
 17 18  1  0
 18 19  1  0
 18 22  1  0
 19 20  2  0
 20 21  1  0
 21 22  2  0
 27 28  1  0
 29 30  2  0
 30 31  1  0
 31 32  2  0
 31 34  1  0
 32 33  1  0
 33 40  1  0
 37 36  1  6
 38 39  1  1
 39 40  1  0
 39 41  1  6
 41 42  2  0
 41 43  1  0
 45 43  1  6
 44 45  1  6
M  END
$$$$
