
     RDKit          3D

 45 49  0  0  0  0  0  0  0  0999 V2000
   45.0420   43.3729   43.1136 C   0  0  0  0  0  0  0  0  0  0  0  0
   47.0897   40.0726   42.9746 C   0  0  0  0  0  0  0  0  0  0  0  0
   46.0525   40.8928   43.7562 C   0  0  1  0  0  0  0  0  0  0  0  0
   46.0871   42.7196   45.3335 C   0  0  0  0  0  0  0  0  0  0  0  0
   46.5058   39.3983   41.6943 C   0  0  0  0  0  0  0  0  0  0  0  0
   45.7188   40.3055   40.7121 C   0  0  0  0  0  0  0  0  0  0  0  0
   44.8140   40.0711   43.9665 C   0  0  0  0  0  0  0  0  0  0  0  0
   43.5814   38.3094   44.3516 C   0  0  0  0  0  0  0  0  0  0  0  0
   37.2545   38.5295   40.2261 C   0  0  0  0  0  0  0  0  0  0  0  0
   41.5840   39.1943   42.9316 C   0  0  0  0  0  0  0  0  0  0  0  0
   49.2317   41.3300   40.9153 Cl  0  0  0  0  0  0  0  0  0  0  0  0
   45.3352   41.0992   40.0940 C   0  0  0  0  0  0  0  0  0  0  0  0
   46.7099   40.9153   40.0486 C   0  0  0  0  0  0  0  0  0  0  0  0
   47.5055   41.5393   40.9884 C   0  0  0  0  0  0  0  0  0  0  0  0
   46.9644   42.3432   41.9723 C   0  0  0  0  0  0  0  0  0  0  0  0
   45.5754   42.5428   42.0238 C   0  0  0  0  0  0  0  0  0  0  0  0
   44.7624   41.9098   41.0689 C   0  0  0  0  0  0  0  0  0  0  0  0
   43.3485   42.1180   41.0531 N   0  0  0  0  0  0  0  0  0  0  0  0
   42.3248   41.2983   40.7800 C   0  0  0  0  0  0  0  0  0  0  0  0
   41.2020   41.9594   40.8481 N   0  0  0  0  0  0  0  0  0  0  0  0
   41.5474   43.2321   41.1760 N   0  0  0  0  0  0  0  0  0  0  0  0
   42.8334   43.3455   41.3017 N   0  0  0  0  0  0  0  0  0  0  0  0
   45.7011   43.6346   44.2370 C   0  0  0  0  0  0  0  0  0  0  0  0
   46.0217   43.0565   46.5209 O   0  0  0  0  0  0  0  0  0  0  0  0
   46.5827   41.5192   44.9643 N   0  0  0  0  0  0  0  0  0  0  0  0
   44.8052   38.8658   44.5692 N   0  0  0  0  0  0  0  0  0  0  0  0
   42.8844   39.2239   43.6142 C   0  0  0  0  0  0  0  0  0  0  0  0
   43.6594   40.3382   43.4059 N   0  0  0  0  0  0  0  0  0  0  0  0
   40.4489   38.7925   43.6430 C   0  0  0  0  0  0  0  0  0  0  0  0
   39.1903   38.8570   43.0665 C   0  0  0  0  0  0  0  0  0  0  0  0
   39.0363   39.3518   41.7712 C   0  0  0  0  0  0  0  0  0  0  0  0
   40.1685   39.7231   41.0458 C   0  0  0  0  0  0  0  0  0  0  0  0
   41.4439   39.6396   41.5974 C   0  0  0  0  0  0  0  0  0  0  0  0
   37.7918   39.4410   41.0847 N   0  0  0  0  0  0  0  0  0  0  0  0
   37.8542   37.9075   39.3751 O   0  0  0  0  0  0  0  0  0  0  0  0
   35.9285   38.4222   40.4458 O   0  0  0  0  0  0  0  0  0  0  0  0
   35.0811   39.3542   39.7182 C   0  0  0  0  0  0  0  0  0  0  0  0
   44.7831   39.5703   39.7407 C   0  0  0  0  0  0  0  0  0  0  0  0
   43.5227   38.9398   40.3597 C   0  0  1  0  0  0  0  0  0  0  0  0
   42.5818   39.9484   40.8315 N   0  0  0  0  0  0  0  0  0  0  0  0
   42.9022   37.9237   39.4098 C   0  0  0  0  0  0  0  0  0  0  0  0
   41.8273   38.0687   38.9052 O   0  0  0  0  0  0  0  0  0  0  0  0
   43.6908   36.8638   39.2163 O   0  0  0  0  0  0  0  0  0  0  0  0
   45.6972   37.9695   39.9832 C   0  0  0  0  0  0  0  0  0  0  0  0
   44.8675   36.7269   40.0810 C   0  0  0  0  0  0  0  0  0  0  0  0
  1 16  1  0
  1 23  2  0
  2  3  1  6
  5  2  1  6
  3  7  1  0
  3 25  1  1
  4 23  1  0
  4 24  2  0
  4 25  1  0
  6  5  1  6
  6 38  1  0
  7 26  1  0
  7 28  2  0
  8 26  1  0
  8 27  2  0
  9 34  1  0
  9 35  2  0
  9 36  1  0
 10 27  1  0
 10 29  1  0
 10 33  2  0
 11 14  1  0
 12 13  2  0
 12 17  1  0
 13 14  1  0
 14 15  2  0
 15 16  1  0
 16 17  2  0
 17 18  1  0
 18 19  1  0
 18 22  1  0
 19 20  2  0
 20 21  1  0
 21 22  2  0
 27 28  1  0
 29 30  2  0
 30 31  1  0
 31 32  2  0
 31 34  1  0
 32 33  1  0
 33 40  1  0
 37 36  1  6
 38 39  1  1
 39 40  1  0
 39 41  1  6
 41 42  2  0
 41 43  1  0
 45 43  1  6
 44 45  1  6
M  END
$$$$
