
     RDKit          3D

 45 49  0  0  0  0  0  0  0  0999 V2000
-24581.1621-58203.886779252.2891 C   0  0  0  0  0  0  0  0  0  0  0  0
-24577.4297-58202.835979253.5391 C   0  0  0  0  0  0  0  0  0  0  0  0
-24578.5508-58201.894579254.0234 C   0  0  1  0  0  0  0  0  0  0  0  0
-24580.4941-58203.191479254.6641 C   0  0  0  0  0  0  0  0  0  0  0  0
-24576.5312-58202.195379252.4531 C   0  0  0  0  0  0  0  0  0  0  0  0
-24575.9434-58200.781279252.7422 C   0  0  0  0  0  0  0  0  0  0  0  0
-24579.2871-58201.328179252.8594 C   0  0  0  0  0  0  0  0  0  0  0  0
-24580.2031-58201.253979250.8594 C   0  0  0  0  0  0  0  0  0  0  0  0
-24579.4102-58194.503979247.6094 C   0  0  0  0  0  0  0  0  0  0  0  0
-24579.7266-58198.710979250.5625 C   0  0  0  0  0  0  0  0  0  0  0  0
-24578.0547-58208.007879252.3438 Cl  0  0  0  0  0  0  0  0  0  0  0  0
-24581.9297-58207.503979253.1484 C   0  0  0  0  0  0  0  0  0  0  0  0
-24580.6777-58208.074279252.9531 C   0  0  0  0  0  0  0  0  0  0  0  0
-24579.6211-58207.285279252.5859 C   0  0  0  0  0  0  0  0  0  0  0  0
-24579.7754-58205.937579252.3438 C   0  0  0  0  0  0  0  0  0  0  0  0
-24581.0430-58205.343879252.5156 C   0  0  0  0  0  0  0  0  0  0  0  0
-24582.1191-58206.152379252.9219 C   0  0  0  0  0  0  0  0  0  0  0  0
-24583.4414-58205.609479253.0469 N   0  0  0  0  0  0  0  0  0  0  0  0
-24584.6055-58205.957079252.5391 C   0  0  0  0  0  0  0  0  0  0  0  0
-24585.5371-58205.117279252.9297 N   0  0  0  0  0  0  0  0  0  0  0  0
-24584.9004-58204.234479253.7188 N   0  0  0  0  0  0  0  0  0  0  0  0
-24583.6445-58204.523479253.7891 N   0  0  0  0  0  0  0  0  0  0  0  0
-24580.9277-58202.988379253.2500 C   0  0  0  0  0  0  0  0  0  0  0  0
-24581.1309-58203.894579255.4453 O   0  0  0  0  0  0  0  0  0  0  0  0
-24579.4062-58202.496179255.0625 N   0  0  0  0  0  0  0  0  0  0  0  0
-24579.8730-58202.085979251.9062 N   0  0  0  0  0  0  0  0  0  0  0  0
-24579.8066-58200.003979251.2656 C   0  0  0  0  0  0  0  0  0  0  0  0
-24579.2539-58200.066479252.5078 N   0  0  0  0  0  0  0  0  0  0  0  0
-24580.8594-58198.214879249.9297 C   0  0  0  0  0  0  0  0  0  0  0  0
-24580.8633-58196.945379249.3516 C   0  0  0  0  0  0  0  0  0  0  0  0
-24579.7363-58196.132879249.4688 C   0  0  0  0  0  0  0  0  0  0  0  0
-24578.5957-58196.628979250.0938 C   0  0  0  0  0  0  0  0  0  0  0  0
-24578.5605-58197.914179250.6406 C   0  0  0  0  0  0  0  0  0  0  0  0
-24579.6309-58194.820379248.9219 N   0  0  0  0  0  0  0  0  0  0  0  0
-24578.3340-58194.328179247.0781 O   0  0  0  0  0  0  0  0  0  0  0  0
-24580.5918-58194.371179246.9844 O   0  0  0  0  0  0  0  0  0  0  0  0
-24580.5781-58193.550879245.7578 C   0  0  0  0  0  0  0  0  0  0  0  0
-24575.4785-58200.000079251.5078 C   0  0  0  0  0  0  0  0  0  0  0  0
-24576.5879-58199.476679250.5781 C   0  0  1  0  0  0  0  0  0  0  0  0
-24577.3789-58198.418079251.2109 N   0  0  0  0  0  0  0  0  0  0  0  0
-24576.0117-58199.078179249.2109 C   0  0  0  0  0  0  0  0  0  0  0  0
-24576.5195-58198.269579248.5078 O   0  0  0  0  0  0  0  0  0  0  0  0
-24574.9004-58199.742279248.9375 O   0  0  0  0  0  0  0  0  0  0  0  0
-24574.7988-58200.480579246.6172 C   0  0  0  0  0  0  0  0  0  0  0  0
-24574.2754-58199.492279247.5938 C   0  0  0  0  0  0  0  0  0  0  0  0
  1 16  1  0
  1 23  2  0
  2  3  1  6
  5  2  1  6
  3  7  1  0
  3 25  1  1
  4 23  1  0
  4 24  2  0
  4 25  1  0
  6  5  1  6
  6 38  1  0
  7 26  1  0
  7 28  2  0
  8 26  1  0
  8 27  2  0
  9 34  1  0
  9 35  2  0
  9 36  1  0
 10 27  1  0
 10 29  1  0
 10 33  2  0
 11 14  1  0
 12 13  2  0
 12 17  1  0
 13 14  1  0
 14 15  2  0
 15 16  1  0
 16 17  2  0
 17 18  1  0
 18 19  1  0
 18 22  1  0
 19 20  2  0
 20 21  1  0
 21 22  2  0
 27 28  1  0
 29 30  2  0
 30 31  1  0
 31 32  2  0
 31 34  1  0
 32 33  1  0
 33 40  1  0
 37 36  1  6
 38 39  1  1
 39 40  1  0
 39 41  1  6
 41 42  2  0
 41 43  1  0
 45 43  1  6
 44 45  1  6
M  END
$$$$
