
     RDKit          3D

 45 49  0  0  0  0  0  0  0  0999 V2000
 1171.9221-7361.7622-3988.5439 C   0  0  0  0  0  0  0  0  0  0  0  0
 1175.3436-7362.3188-3993.0205 C   0  0  0  0  0  0  0  0  0  0  0  0
 1175.1200-7361.8140-3991.5874 C   0  0  1  0  0  0  0  0  0  0  0  0
 1172.8346-7362.1416-3990.8833 C   0  0  0  0  0  0  0  0  0  0  0  0
 1176.4104-7361.4937-3993.8062 C   0  0  0  0  0  0  0  0  0  0  0  0
 1177.7828-7361.2720-3993.1169 C   0  0  0  0  0  0  0  0  0  0  0  0
 1174.9049-7360.3281-3991.6030 C   0  0  0  0  0  0  0  0  0  0  0  0
 1174.2085-7358.3804-3992.3042 C   0  0  0  0  0  0  0  0  0  0  0  0
 1178.6179-7352.6084-3990.2256 C   0  0  0  0  0  0  0  0  0  0  0  0
 1176.2258-7357.1016-3991.2622 C   0  0  0  0  0  0  0  0  0  0  0  0
 1167.3733-7360.4922-3986.4829 Cl  0  0  0  0  0  0  0  0  0  0  0  0
 1171.1029-7359.2246-3985.8484 C   0  0  0  0  0  0  0  0  0  0  0  0
 1169.7281-7359.3882-3985.7578 C   0  0  0  0  0  0  0  0  0  0  0  0
 1169.1018-7360.3057-3986.5776 C   0  0  0  0  0  0  0  0  0  0  0  0
 1169.8124-7361.0659-3987.4868 C   0  0  0  0  0  0  0  0  0  0  0  0
 1171.2034-7360.9033-3987.5925 C   0  0  0  0  0  0  0  0  0  0  0  0
 1171.8442-7359.9702-3986.7607 C   0  0  0  0  0  0  0  0  0  0  0  0
 1173.2510-7359.7393-3986.8621 N   0  0  0  0  0  0  0  0  0  0  0  0
 1174.0099-7358.6792-3986.5498 C   0  0  0  0  0  0  0  0  0  0  0  0
 1175.2516-7358.9209-3986.8704 N   0  0  0  0  0  0  0  0  0  0  0  0
 1175.2574-7360.1729-3987.3977 N   0  0  0  0  0  0  0  0  0  0  0  0
 1174.0631-7360.6787-3987.4016 N   0  0  0  0  0  0  0  0  0  0  0  0
 1172.3733-7361.3477-3989.7234 C   0  0  0  0  0  0  0  0  0  0  0  0
 1172.0748-7362.4517-3991.8076 O   0  0  0  0  0  0  0  0  0  0  0  0
 1174.1144-7362.5688-3990.8445 N   0  0  0  0  0  0  0  0  0  0  0  0
 1173.9443-7359.7158-3992.3237 N   0  0  0  0  0  0  0  0  0  0  0  0
 1175.3400-7358.2373-3991.5527 C   0  0  0  0  0  0  0  0  0  0  0  0
 1175.7490-7359.4653-3991.0930 N   0  0  0  0  0  0  0  0  0  0  0  0
 1175.6721-7355.9082-3990.7898 C   0  0  0  0  0  0  0  0  0  0  0  0
 1176.4836-7354.8525-3990.4009 C   0  0  0  0  0  0  0  0  0  0  0  0
 1177.8717-7354.9819-3990.4509 C   0  0  0  0  0  0  0  0  0  0  0  0
 1178.4291-7356.1592-3990.9517 C   0  0  0  0  0  0  0  0  0  0  0  0
 1177.6300-7357.2183-3991.3740 C   0  0  0  0  0  0  0  0  0  0  0  0
 1178.7902-7353.9531-3990.0925 N   0  0  0  0  0  0  0  0  0  0  0  0
 1178.9144-7351.7656-3989.4065 O   0  0  0  0  0  0  0  0  0  0  0  0
 1178.0438-7352.3379-3991.4153 O   0  0  0  0  0  0  0  0  0  0  0  0
 1178.3772-7353.2393-3992.5071 C   0  0  0  0  0  0  0  0  0  0  0  0
 1178.6180-7360.1074-3993.6699 C   0  0  0  0  0  0  0  0  0  0  0  0
 1178.0973-7358.6929-3993.3606 C   0  0  1  0  0  0  0  0  0  0  0  0
 1178.2018-7358.3696-3991.9429 N   0  0  0  0  0  0  0  0  0  0  0  0
 1178.7527-7357.6626-3994.2717 C   0  0  0  0  0  0  0  0  0  0  0  0
 1179.9054-7357.3550-3994.1909 O   0  0  0  0  0  0  0  0  0  0  0  0
 1177.8929-7357.1484-3995.1553 O   0  0  0  0  0  0  0  0  0  0  0  0
 1177.2639-7359.3853-3995.8113 C   0  0  0  0  0  0  0  0  0  0  0  0
 1176.7712-7357.9912-3995.5793 C   0  0  0  0  0  0  0  0  0  0  0  0
  1 16  1  0
  1 23  2  0
  2  3  1  6
  5  2  1  6
  3  7  1  0
  3 25  1  6
  4 23  1  0
  4 24  2  0
  4 25  1  0
  6  5  1  6
  6 38  1  0
  7 26  1  0
  7 28  2  0
  8 26  1  0
  8 27  2  0
  9 34  1  0
  9 35  2  0
  9 36  1  0
 10 27  1  0
 10 29  1  0
 10 33  2  0
 11 14  1  0
 12 13  2  0
 12 17  1  0
 13 14  1  0
 14 15  2  0
 15 16  1  0
 16 17  2  0
 17 18  1  0
 18 19  1  0
 18 22  1  0
 19 20  2  0
 20 21  1  0
 21 22  2  0
 27 28  1  0
 29 30  2  0
 30 31  1  0
 31 32  2  0
 31 34  1  0
 32 33  1  0
 33 40  1  0
 37 36  1  6
 38 39  1  1
 39 40  1  0
 39 41  1  6
 41 42  2  0
 41 43  1  0
 45 43  1  6
 44 45  1  6
M  END
$$$$
