
     RDKit          3D

 45 49  0  0  0  0  0  0  0  0999 V2000
  -32.3878   48.7951   47.3471 C   0  0  0  0  0  0  0  0  0  0  0  0
  -28.5408   47.5704   43.4295 C   0  0  0  0  0  0  0  0  0  0  0  0
  -29.7769   47.6295   44.3394 C   0  0  1  0  0  0  0  0  0  0  0  0
  -31.6066   49.0813   44.9482 C   0  0  0  0  0  0  0  0  0  0  0  0
  -27.9348   46.1380   43.3038 C   0  0  0  0  0  0  0  0  0  0  0  0
  -28.9067   44.9881   42.9293 C   0  0  0  0  0  0  0  0  0  0  0  0
  -29.4812   46.9370   45.6379 C   0  0  0  0  0  0  0  0  0  0  0  0
  -28.3392   46.2796   47.3800 C   0  0  0  0  0  0  0  0  0  0  0  0
  -31.1482   39.8638   50.3304 C   0  0  0  0  0  0  0  0  0  0  0  0
  -29.6506   44.0387   47.5986 C   0  0  0  0  0  0  0  0  0  0  0  0
  -30.6707   52.1121   50.8979 Cl  0  0  0  0  0  0  0  0  0  0  0  0
  -33.6224   49.4293   50.8752 C   0  0  0  0  0  0  0  0  0  0  0  0
  -32.7505   50.4335   51.2713 C   0  0  0  0  0  0  0  0  0  0  0  0
  -31.7810   50.8712   50.3916 C   0  0  0  0  0  0  0  0  0  0  0  0
  -31.6582   50.3315   49.1264 C   0  0  0  0  0  0  0  0  0  0  0  0
  -32.5300   49.3095   48.7169 C   0  0  0  0  0  0  0  0  0  0  0  0
  -33.5177   48.8612   49.6096 C   0  0  0  0  0  0  0  0  0  0  0  0
  -34.3989   47.7932   49.2551 N   0  0  0  0  0  0  0  0  0  0  0  0
  -34.2314   46.4645   49.2278 C   0  0  0  0  0  0  0  0  0  0  0  0
  -35.3170   45.8935   48.7831 N   0  0  0  0  0  0  0  0  0  0  0  0
  -36.1845   46.9080   48.5284 N   0  0  0  0  0  0  0  0  0  0  0  0
  -35.6488   48.0564   48.8050 N   0  0  0  0  0  0  0  0  0  0  0  0
  -31.7411   49.4342   46.3785 C   0  0  0  0  0  0  0  0  0  0  0  0
  -32.5892   48.8401   44.2383 O   0  0  0  0  0  0  0  0  0  0  0  0
  -30.3469   48.9672   44.4762 N   0  0  0  0  0  0  0  0  0  0  0  0
  -28.4570   47.2667   46.4493 N   0  0  0  0  0  0  0  0  0  0  0  0
  -29.3220   45.3766   47.0888 C   0  0  0  0  0  0  0  0  0  0  0  0
  -30.0511   45.8170   46.0118 N   0  0  0  0  0  0  0  0  0  0  0  0
  -29.7803   43.8468   48.9779 C   0  0  0  0  0  0  0  0  0  0  0  0
  -30.1968   42.6278   49.4889 C   0  0  0  0  0  0  0  0  0  0  0  0
  -30.5197   41.5792   48.6271 C   0  0  0  0  0  0  0  0  0  0  0  0
  -30.3609   41.7550   47.2524 C   0  0  0  0  0  0  0  0  0  0  0  0
  -29.9172   42.9629   46.7213 C   0  0  0  0  0  0  0  0  0  0  0  0
  -30.9381   40.2860   49.0520 N   0  0  0  0  0  0  0  0  0  0  0  0
  -30.4982   40.1796   51.3043 O   0  0  0  0  0  0  0  0  0  0  0  0
  -32.1934   39.0127   50.3639 O   0  0  0  0  0  0  0  0  0  0  0  0
  -33.5073   39.6038   50.1633 C   0  0  0  0  0  0  0  0  0  0  0  0
  -28.4127   43.5721   43.2619 C   0  0  0  0  0  0  0  0  0  0  0  0
  -28.3610   43.2055   44.7560 C   0  0  1  0  0  0  0  0  0  0  0  0
  -29.6926   43.1038   45.3406 N   0  0  0  0  0  0  0  0  0  0  0  0
  -27.4999   41.9697   44.9817 C   0  0  0  0  0  0  0  0  0  0  0  0
  -27.8991   40.8536   44.8200 O   0  0  0  0  0  0  0  0  0  0  0  0
  -26.2644   42.2796   45.3819 O   0  0  0  0  0  0  0  0  0  0  0  0
  -24.5287   42.8000   43.7840 C   0  0  0  0  0  0  0  0  0  0  0  0
  -25.5794   43.3728   44.6841 C   0  0  0  0  0  0  0  0  0  0  0  0
  1 16  1  0
  1 23  2  0
  2  3  1  6
  5  2  1  6
  3  7  1  0
  3 25  1  1
  4 23  1  0
  4 24  2  0
  4 25  1  0
  6  5  1  6
  6 38  1  0
  7 26  1  0
  7 28  2  0
  8 26  1  0
  8 27  2  0
  9 34  1  0
  9 35  2  0
  9 36  1  0
 10 27  1  0
 10 29  1  0
 10 33  2  0
 11 14  1  0
 12 13  2  0
 12 17  1  0
 13 14  1  0
 14 15  2  0
 15 16  1  0
 16 17  2  0
 17 18  1  0
 18 19  1  0
 18 22  1  0
 19 20  2  0
 20 21  1  0
 21 22  2  0
 27 28  1  0
 29 30  2  0
 30 31  1  0
 31 32  2  0
 31 34  1  0
 32 33  1  0
 33 40  1  0
 37 36  1  6
 38 39  1  1
 39 40  1  0
 39 41  1  6
 41 42  2  0
 41 43  1  0
 45 43  1  6
 44 45  1  6
M  END
$$$$
