
     RDKit          3D

 45 49  0  0  0  0  0  0  0  0999 V2000
   43.2992   30.8426   26.2029 C   0  0  0  0  0  0  0  0  0  0  0  0
   45.5763   33.5870   30.8378 C   0  0  0  0  0  0  0  0  0  0  0  0
   45.1959   33.3387   29.3704 C   0  0  1  0  0  0  0  0  0  0  0  0
   45.2359   31.6859   27.6118 C   0  0  0  0  0  0  0  0  0  0  0  0
   45.2302   35.0266   31.3301 C   0  0  0  0  0  0  0  0  0  0  0  0
   43.7852   35.5328   31.0789 C   0  0  0  0  0  0  0  0  0  0  0  0
   45.7203   34.4568   28.5172 C   0  0  0  0  0  0  0  0  0  0  0  0
   47.0839   36.0095   27.8092 C   0  0  0  0  0  0  0  0  0  0  0  0
   42.9307   40.9911   23.7299 C   0  0  0  0  0  0  0  0  0  0  0  0
   45.1601   37.5153   26.9031 C   0  0  0  0  0  0  0  0  0  0  0  0
   43.8308   25.8837   27.5015 Cl  0  0  0  0  0  0  0  0  0  0  0  0
   43.0141   27.7279   24.0602 C   0  0  0  0  0  0  0  0  0  0  0  0
   43.2513   26.7448   25.0105 C   0  0  0  0  0  0  0  0  0  0  0  0
   43.5071   27.1155   26.3154 C   0  0  0  0  0  0  0  0  0  0  0  0
   43.5334   28.4425   26.6964 C   0  0  0  0  0  0  0  0  0  0  0  0
   43.3023   29.4465   25.7422 C   0  0  0  0  0  0  0  0  0  0  0  0
   43.0419   29.0733   24.4131 C   0  0  0  0  0  0  0  0  0  0  0  0
   42.8449   30.0597   23.3977 N   0  0  0  0  0  0  0  0  0  0  0  0
   43.1330   31.3670   23.3500 C   0  0  0  0  0  0  0  0  0  0  0  0
   42.7162   31.8681   22.2198 N   0  0  0  0  0  0  0  0  0  0  0  0
   42.1519   30.8310   21.5471 N   0  0  0  0  0  0  0  0  0  0  0  0
   42.2193   29.7371   22.2407 N   0  0  0  0  0  0  0  0  0  0  0  0
   43.8486   31.2485   27.3423 C   0  0  0  0  0  0  0  0  0  0  0  0
   46.1002   31.7030   26.7283 O   0  0  0  0  0  0  0  0  0  0  0  0
   45.5263   31.9987   28.8926 N   0  0  0  0  0  0  0  0  0  0  0  0
   47.0175   34.8184   28.4661 N   0  0  0  0  0  0  0  0  0  0  0  0
   45.7959   36.3228   27.4791 C   0  0  0  0  0  0  0  0  0  0  0  0
   44.9535   35.3245   27.9023 N   0  0  0  0  0  0  0  0  0  0  0  0
   45.6736   38.0589   25.7212 C   0  0  0  0  0  0  0  0  0  0  0  0
   45.0354   39.1144   25.0895 C   0  0  0  0  0  0  0  0  0  0  0  0
   43.8509   39.6330   25.6133 C   0  0  0  0  0  0  0  0  0  0  0  0
   43.3523   39.1161   26.8093 C   0  0  0  0  0  0  0  0  0  0  0  0
   43.9940   38.0745   27.4736 C   0  0  0  0  0  0  0  0  0  0  0  0
   43.1309   40.7256   25.0514 N   0  0  0  0  0  0  0  0  0  0  0  0
   41.8576   41.0760   23.1715 O   0  0  0  0  0  0  0  0  0  0  0  0
   44.1186   41.1344   23.1083 O   0  0  0  0  0  0  0  0  0  0  0  0
   44.8902   39.9169   22.9128 C   0  0  0  0  0  0  0  0  0  0  0  0
   43.6008   37.0567   31.1358 C   0  0  0  0  0  0  0  0  0  0  0  0
   44.2138   37.8579   29.9731 C   0  0  1  0  0  0  0  0  0  0  0  0
   43.5214   37.6115   28.7142 N   0  0  0  0  0  0  0  0  0  0  0  0
   44.3233   39.3345   30.3302 C   0  0  0  0  0  0  0  0  0  0  0  0
   43.8268   40.2056   29.6777 O   0  0  0  0  0  0  0  0  0  0  0  0
   45.0356   39.5353   31.4416 O   0  0  0  0  0  0  0  0  0  0  0  0
   46.9552   39.2866   29.9961 C   0  0  0  0  0  0  0  0  0  0  0  0
   46.4574   39.8600   31.2866 C   0  0  0  0  0  0  0  0  0  0  0  0
  1 16  1  0
  1 23  2  0
  2  3  1  6
  5  2  1  6
  3  7  1  0
  3 25  1  6
  4 23  1  0
  4 24  2  0
  4 25  1  0
  6  5  1  6
  6 38  1  0
  7 26  1  0
  7 28  2  0
  8 26  1  0
  8 27  2  0
  9 34  1  0
  9 35  2  0
  9 36  1  0
 10 27  1  0
 10 29  1  0
 10 33  2  0
 11 14  1  0
 12 13  2  0
 12 17  1  0
 13 14  1  0
 14 15  2  0
 15 16  1  0
 16 17  2  0
 17 18  1  0
 18 19  1  0
 18 22  1  0
 19 20  2  0
 20 21  1  0
 21 22  2  0
 27 28  1  0
 29 30  2  0
 30 31  1  0
 31 32  2  0
 31 34  1  0
 32 33  1  0
 33 40  1  0
 37 36  1  6
 38 39  1  1
 39 40  1  0
 39 41  1  1
 41 42  2  0
 41 43  1  0
 45 43  1  6
 44 45  1  6
M  END
$$$$
