
     RDKit          3D

 45 49  0  0  0  0  0  0  0  0999 V2000
-2941.8301   65.4032 2410.4517 C   0  0  0  0  0  0  0  0  0  0  0  0
-2940.8564   70.7537 2411.6187 C   0  0  0  0  0  0  0  0  0  0  0  0
-2941.3613   70.1831 2410.2847 C   0  0  1  0  0  0  0  0  0  0  0  0
-2941.1541   67.8005 2409.9578 C   0  0  0  0  0  0  0  0  0  0  0  0
-2940.2603   72.1900 2411.4900 C   0  0  0  0  0  0  0  0  0  0  0  0
-2941.1282   73.2548 2410.7678 C   0  0  0  0  0  0  0  0  0  0  0  0
-2940.3040   70.3521 2409.2322 C   0  0  0  0  0  0  0  0  0  0  0  0
-2938.3098   70.4300 2408.3430 C   0  0  0  0  0  0  0  0  0  0  0  0
-2939.7424   75.7957 2402.9661 C   0  0  0  0  0  0  0  0  0  0  0  0
-2938.9902   72.2154 2406.5725 C   0  0  0  0  0  0  0  0  0  0  0  0
-2946.9209   65.6672 2411.2124 Cl  0  0  0  0  0  0  0  0  0  0  0  0
-2944.0613   63.3114 2412.6919 C   0  0  0  0  0  0  0  0  0  0  0  0
-2945.2966   63.8823 2412.4216 C   0  0  0  0  0  0  0  0  0  0  0  0
-2945.3743   64.9341 2411.5310 C   0  0  0  0  0  0  0  0  0  0  0  0
-2944.2493   65.4320 2410.9031 C   0  0  0  0  0  0  0  0  0  0  0  0
-2942.9924   64.8674 2411.1748 C   0  0  0  0  0  0  0  0  0  0  0  0
-2942.9097   63.7970 2412.0803 C   0  0  0  0  0  0  0  0  0  0  0  0
-2941.6484   63.2189 2412.4229 N   0  0  0  0  0  0  0  0  0  0  0  0
-2941.1506   61.9871 2412.2512 C   0  0  0  0  0  0  0  0  0  0  0  0
-2939.9587   61.9171 2412.7771 N   0  0  0  0  0  0  0  0  0  0  0  0
-2939.7136   63.1513 2413.2896 N   0  0  0  0  0  0  0  0  0  0  0  0
-2940.7195   63.9455 2413.0874 N   0  0  0  0  0  0  0  0  0  0  0  0
-2941.2373   66.5539 2410.7502 C   0  0  0  0  0  0  0  0  0  0  0  0
-2940.3899   67.9140 2408.9939 O   0  0  0  0  0  0  0  0  0  0  0  0
-2941.9092   68.8337 2410.3889 N   0  0  0  0  0  0  0  0  0  0  0  0
-2939.0488   69.8737 2409.3428 N   0  0  0  0  0  0  0  0  0  0  0  0
-2939.1687   71.2357 2407.6519 C   0  0  0  0  0  0  0  0  0  0  0  0
-2940.4248   71.1534 2408.2014 N   0  0  0  0  0  0  0  0  0  0  0  0
-2938.2952   71.8397 2405.4182 C   0  0  0  0  0  0  0  0  0  0  0  0
-2938.2014   72.6988 2404.3347 C   0  0  0  0  0  0  0  0  0  0  0  0
-2938.8259   73.9459 2404.3723 C   0  0  0  0  0  0  0  0  0  0  0  0
-2939.4924   74.3385 2405.5332 C   0  0  0  0  0  0  0  0  0  0  0  0
-2939.5730   73.5009 2406.6418 C   0  0  0  0  0  0  0  0  0  0  0  0
-2938.7732   74.9059 2403.3215 N   0  0  0  0  0  0  0  0  0  0  0  0
-2939.5625   76.9066 2402.5144 O   0  0  0  0  0  0  0  0  0  0  0  0
-2940.9595   75.2661 2403.2065 O   0  0  0  0  0  0  0  0  0  0  0  0
-2942.0945   76.1538 2403.0098 C   0  0  0  0  0  0  0  0  0  0  0  0
-2940.3669   74.4839 2410.2483 C   0  0  0  0  0  0  0  0  0  0  0  0
-2939.4387   74.2473 2409.0437 C   0  0  1  0  0  0  0  0  0  0  0  0
-2940.1851   73.9365 2407.8306 N   0  0  0  0  0  0  0  0  0  0  0  0
-2938.4597   75.4022 2408.8784 C   0  0  0  0  0  0  0  0  0  0  0  0
-2937.3081   75.3360 2409.1938 O   0  0  0  0  0  0  0  0  0  0  0  0
-2939.0378   76.4842 2408.3506 O   0  0  0  0  0  0  0  0  0  0  0  0
-2940.8623   77.4977 2407.1345 C   0  0  0  0  0  0  0  0  0  0  0  0
-2940.0061   76.2767 2407.2690 C   0  0  0  0  0  0  0  0  0  0  0  0
  1 16  1  0
  1 23  2  0
  2  3  1  6
  5  2  1  6
  3  7  1  0
  3 25  1  1
  4 23  1  0
  4 24  2  0
  4 25  1  0
  6  5  1  6
  6 38  1  0
  7 26  1  0
  7 28  2  0
  8 26  1  0
  8 27  2  0
  9 34  1  0
  9 35  2  0
  9 36  1  0
 10 27  1  0
 10 29  1  0
 10 33  2  0
 11 14  1  0
 12 13  2  0
 12 17  1  0
 13 14  1  0
 14 15  2  0
 15 16  1  0
 16 17  2  0
 17 18  1  0
 18 19  1  0
 18 22  1  0
 19 20  2  0
 20 21  1  0
 21 22  2  0
 27 28  1  0
 29 30  2  0
 30 31  1  0
 31 32  2  0
 31 34  1  0
 32 33  1  0
 33 40  1  0
 37 36  1  6
 38 39  1  1
 39 40  1  0
 39 41  1  6
 41 42  2  0
 41 43  1  0
 45 43  1  6
 44 45  1  6
M  END
$$$$
