
     RDKit          3D

 45 49  0  0  0  0  0  0  0  0999 V2000
 7078.064528024.1777  581.5184 C   0  0  0  0  0  0  0  0  0  0  0  0
 7077.327128028.0781  582.9720 C   0  0  0  0  0  0  0  0  0  0  0  0
 7076.269528027.3203  583.7914 C   0  0  1  0  0  0  0  0  0  0  0  0
 7076.206128025.0312  583.0253 C   0  0  0  0  0  0  0  0  0  0  0  0
 7078.010728029.2363  583.7647 C   0  0  0  0  0  0  0  0  0  0  0  0
 7078.591328028.8867  585.1616 C   0  0  0  0  0  0  0  0  0  0  0  0
 7075.335928028.3047  584.4383 C   0  0  0  0  0  0  0  0  0  0  0  0
 7074.108428030.0957  584.6716 C   0  0  0  0  0  0  0  0  0  0  0  0
 7074.944828031.0059  592.2972 C   0  0  0  0  0  0  0  0  0  0  0  0
 7074.445328030.1875  587.2534 C   0  0  0  0  0  0  0  0  0  0  0  0
 7083.037628024.3496  580.1786 Cl  0  0  0  0  0  0  0  0  0  0  0  0
 7080.230528027.1543  580.5880 C   0  0  0  0  0  0  0  0  0  0  0  0
 7081.437528026.5137  580.3314 C   0  0  0  0  0  0  0  0  0  0  0  0
 7081.519028025.1445  580.4751 C   0  0  0  0  0  0  0  0  0  0  0  0
 7080.429228024.3867  580.8712 C   0  0  0  0  0  0  0  0  0  0  0  0
 7079.206528025.0312  581.1412 C   0  0  0  0  0  0  0  0  0  0  0  0
 7079.118728026.4180  580.9957 C   0  0  0  0  0  0  0  0  0  0  0  0
 7077.909728027.1191  581.3022 N   0  0  0  0  0  0  0  0  0  0  0  0
 7077.052728027.8105  580.5366 C   0  0  0  0  0  0  0  0  0  0  0  0
 7076.106428028.3105  581.2796 N   0  0  0  0  0  0  0  0  0  0  0  0
 7076.390128027.9141  582.5486 N   0  0  0  0  0  0  0  0  0  0  0  0
 7077.473128027.2012  582.5807 N   0  0  0  0  0  0  0  0  0  0  0  0
 7076.840828024.6504  581.7460 C   0  0  0  0  0  0  0  0  0  0  0  0
 7076.165028024.2656  583.9926 O   0  0  0  0  0  0  0  0  0  0  0  0
 7075.610828026.2422  583.0571 N   0  0  0  0  0  0  0  0  0  0  0  0
 7074.628428029.2246  583.7593 N   0  0  0  0  0  0  0  0  0  0  0  0
 7074.526928029.6426  585.8912 C   0  0  0  0  0  0  0  0  0  0  0  0
 7075.272928028.5020  585.7327 N   0  0  0  0  0  0  0  0  0  0  0  0
 7073.205628030.6055  587.7496 C   0  0  0  0  0  0  0  0  0  0  0  0
 7073.071828031.0156  589.0652 C   0  0  0  0  0  0  0  0  0  0  0  0
 7074.170428031.0000  589.9229 C   0  0  0  0  0  0  0  0  0  0  0  0
 7075.417528030.6172  589.4244 C   0  0  0  0  0  0  0  0  0  0  0  0
 7075.579128030.2266  588.0988 C   0  0  0  0  0  0  0  0  0  0  0  0
 7074.140128031.4199  591.2826 N   0  0  0  0  0  0  0  0  0  0  0  0
 7075.046928031.5156  593.3909 O   0  0  0  0  0  0  0  0  0  0  0  0
 7075.644028029.9160  591.9057 O   0  0  0  0  0  0  0  0  0  0  0  0
 7076.360428030.0391  590.6457 C   0  0  0  0  0  0  0  0  0  0  0  0
 7078.828128030.0840  586.0931 C   0  0  0  0  0  0  0  0  0  0  0  0
 7077.566428030.7695  586.6516 C   0  0  1  0  0  0  0  0  0  0  0  0
 7076.851128029.9141  587.5905 N   0  0  0  0  0  0  0  0  0  0  0  0
 7077.898928032.1465  587.2120 C   0  0  0  0  0  0  0  0  0  0  0  0
 7077.588928033.1641  586.6716 O   0  0  0  0  0  0  0  0  0  0  0  0
 7078.576728032.0762  588.3615 O   0  0  0  0  0  0  0  0  0  0  0  0
 7079.107928030.8359  590.3680 C   0  0  0  0  0  0  0  0  0  0  0  0
 7078.012728031.2422  589.4293 C   0  0  0  0  0  0  0  0  0  0  0  0
  1 16  1  0
  1 23  2  0
  2  3  1  6
  5  2  1  6
  3  7  1  0
  3 25  1  6
  4 23  1  0
  4 24  2  0
  4 25  1  0
  6  5  1  6
  6 38  1  0
  7 26  1  0
  7 28  2  0
  8 26  1  0
  8 27  2  0
  9 34  1  0
  9 35  2  0
  9 36  1  0
 10 27  1  0
 10 29  1  0
 10 33  2  0
 11 14  1  0
 12 13  2  0
 12 17  1  0
 13 14  1  0
 14 15  2  0
 15 16  1  0
 16 17  2  0
 17 18  1  0
 18 19  1  0
 18 22  1  0
 19 20  2  0
 20 21  1  0
 21 22  2  0
 27 28  1  0
 29 30  2  0
 30 31  1  0
 31 32  2  0
 31 34  1  0
 32 33  1  0
 33 40  1  0
 37 36  1  6
 38 39  1  1
 39 40  1  0
 39 41  1  1
 41 42  2  0
 41 43  1  0
 45 43  1  6
 44 45  1  6
M  END
$$$$
