
     RDKit          3D

 45 49  0  0  0  0  0  0  0  0999 V2000
   78.8535  -19.1345    6.0302 C   0  0  0  0  0  0  0  0  0  0  0  0
   74.7038  -17.3059    8.6938 C   0  0  0  0  0  0  0  0  0  0  0  0
   76.1968  -17.3162    9.0550 C   0  0  1  0  0  0  0  0  0  0  0  0
   76.8090  -19.0886    7.5352 C   0  0  0  0  0  0  0  0  0  0  0  0
   74.0049  -15.9441    8.9967 C   0  0  0  0  0  0  0  0  0  0  0  0
   74.6793  -14.6625    8.4400 C   0  0  0  0  0  0  0  0  0  0  0  0
   76.3824  -16.7907   10.4488 C   0  0  0  0  0  0  0  0  0  0  0  0
   75.9635  -16.4372   12.5632 C   0  0  0  0  0  0  0  0  0  0  0  0
   79.4963  -10.1019   14.9108 C   0  0  0  0  0  0  0  0  0  0  0  0
   77.1090  -14.0969   12.5673 C   0  0  0  0  0  0  0  0  0  0  0  0
   81.5151  -14.7295    6.2966 Cl  0  0  0  0  0  0  0  0  0  0  0  0
   82.4982  -18.5488    6.8942 C   0  0  0  0  0  0  0  0  0  0  0  0
   82.5620  -17.1659    6.7968 C   0  0  0  0  0  0  0  0  0  0  0  0
   81.4284  -16.4614    6.4446 C   0  0  0  0  0  0  0  0  0  0  0  0
   80.2324  -17.1016    6.1858 C   0  0  0  0  0  0  0  0  0  0  0  0
   80.1576  -18.5011    6.2738 C   0  0  0  0  0  0  0  0  0  0  0  0
   81.3092  -19.2217    6.6317 C   0  0  0  0  0  0  0  0  0  0  0  0
   81.2941  -20.6496    6.6907 N   0  0  0  0  0  0  0  0  0  0  0  0
   82.0249  -21.5804    6.0631 C   0  0  0  0  0  0  0  0  0  0  0  0
   81.6103  -22.7692    6.4051 N   0  0  0  0  0  0  0  0  0  0  0  0
   80.5876  -22.5624    7.2758 N   0  0  0  0  0  0  0  0  0  0  0  0
   80.3832  -21.2945    7.4578 N   0  0  0  0  0  0  0  0  0  0  0  0
   78.0759  -19.6235    6.9900 C   0  0  0  0  0  0  0  0  0  0  0  0
   75.7746  -19.0403    6.8603 O   0  0  0  0  0  0  0  0  0  0  0  0
   76.8608  -18.5894    8.7885 N   0  0  0  0  0  0  0  0  0  0  0  0
   75.7757  -17.3096   11.5345 N   0  0  0  0  0  0  0  0  0  0  0  0
   76.6962  -15.4068   12.0461 C   0  0  0  0  0  0  0  0  0  0  0  0
   76.9786  -15.6564   10.7257 N   0  0  0  0  0  0  0  0  0  0  0  0
   77.7495  -14.0273   13.8086 C   0  0  0  0  0  0  0  0  0  0  0  0
   78.2513  -12.8255   14.2821 C   0  0  0  0  0  0  0  0  0  0  0  0
   78.1469  -11.6685   13.5095 C   0  0  0  0  0  0  0  0  0  0  0  0
   77.4802  -11.7258   12.2855 C   0  0  0  0  0  0  0  0  0  0  0  0
   76.9449  -12.9177   11.8053 C   0  0  0  0  0  0  0  0  0  0  0  0
   78.6123  -10.3845   13.9131 N   0  0  0  0  0  0  0  0  0  0  0  0
   79.4259   -9.1735   15.6878 O   0  0  0  0  0  0  0  0  0  0  0  0
   80.4944  -11.0085   14.9064 O   0  0  0  0  0  0  0  0  0  0  0  0
   80.3688  -12.1040   15.8551 C   0  0  0  0  0  0  0  0  0  0  0  0
   74.2618  -13.3493    9.1188 C   0  0  0  0  0  0  0  0  0  0  0  0
   74.7688  -13.1382   10.5569 C   0  0  1  0  0  0  0  0  0  0  0  0
   76.2132  -12.9472   10.6051 N   0  0  0  0  0  0  0  0  0  0  0  0
   73.9838  -12.0334   11.2519 C   0  0  0  0  0  0  0  0  0  0  0  0
   73.0000  -11.5360   10.7874 O   0  0  0  0  0  0  0  0  0  0  0  0
   74.5236  -11.6889   12.4236 O   0  0  0  0  0  0  0  0  0  0  0  0
   75.9538  -10.3790   10.9832 C   0  0  0  0  0  0  0  0  0  0  0  0
   75.6489  -10.7486   12.4019 C   0  0  0  0  0  0  0  0  0  0  0  0
  1 16  1  0
  1 23  2  0
  2  3  1  6
  5  2  1  6
  3  7  1  0
  3 25  1  1
  4 23  1  0
  4 24  2  0
  4 25  1  0
  6  5  1  6
  6 38  1  0
  7 26  1  0
  7 28  2  0
  8 26  1  0
  8 27  2  0
  9 34  1  0
  9 35  2  0
  9 36  1  0
 10 27  1  0
 10 29  1  0
 10 33  2  0
 11 14  1  0
 12 13  2  0
 12 17  1  0
 13 14  1  0
 14 15  2  0
 15 16  1  0
 16 17  2  0
 17 18  1  0
 18 19  1  0
 18 22  1  0
 19 20  2  0
 20 21  1  0
 21 22  2  0
 27 28  1  0
 29 30  2  0
 30 31  1  0
 31 32  2  0
 31 34  1  0
 32 33  1  0
 33 40  1  0
 37 36  1  6
 38 39  1  1
 39 40  1  0
 39 41  1  6
 41 42  2  0
 41 43  1  0
 45 43  1  6
 44 45  1  6
M  END
$$$$
