
     RDKit          3D

 45 49  0  0  0  0  0  0  0  0999 V2000
  -20.3252  -11.8177   46.8341 C   0  0  0  0  0  0  0  0  0  0  0  0
  -17.4992  -11.2620   47.0021 C   0  0  0  0  0  0  0  0  0  0  0  0
  -17.2912  -12.0778   45.7174 C   0  0  1  0  0  0  0  0  0  0  0  0
  -19.2603  -13.3250   45.0903 C   0  0  0  0  0  0  0  0  0  0  0  0
  -16.6755   -9.9371   47.0321 C   0  0  0  0  0  0  0  0  0  0  0  0
  -16.7955   -9.0004   45.8010 C   0  0  0  0  0  0  0  0  0  0  0  0
  -15.8224  -12.2239   45.4447 C   0  0  0  0  0  0  0  0  0  0  0  0
  -13.6930  -12.4892   45.8530 C   0  0  0  0  0  0  0  0  0  0  0  0
   -9.2158   -8.8177   41.0223 C   0  0  0  0  0  0  0  0  0  0  0  0
  -12.9544  -11.0993   43.7765 C   0  0  0  0  0  0  0  0  0  0  0  0
  -16.4219  -12.6760   50.0879 Cl  0  0  0  0  0  0  0  0  0  0  0  0
  -17.3021   -9.6689   47.6195 C   0  0  0  0  0  0  0  0  0  0  0  0
  -16.6556  -10.4720   48.5483 C   0  0  0  0  0  0  0  0  0  0  0  0
  -17.2193  -11.6810   48.9032 C   0  0  0  0  0  0  0  0  0  0  0  0
  -18.4126  -12.1091   48.3557 C   0  0  0  0  0  0  0  0  0  0  0  0
  -19.0798  -11.3016   47.4204 C   0  0  0  0  0  0  0  0  0  0  0  0
  -18.5095  -10.0703   47.0569 C   0  0  0  0  0  0  0  0  0  0  0  0
  -19.1729   -9.1940   46.1433 N   0  0  0  0  0  0  0  0  0  0  0  0
  -20.1053   -9.4140   45.2071 C   0  0  0  0  0  0  0  0  0  0  0  0
  -20.3720   -8.3004   44.5819 N   0  0  0  0  0  0  0  0  0  0  0  0
  -19.5752   -7.3606   45.1549 N   0  0  0  0  0  0  0  0  0  0  0  0
  -18.8471   -7.8804   46.0941 N   0  0  0  0  0  0  0  0  0  0  0  0
  -20.3681  -12.7308   45.8701 C   0  0  0  0  0  0  0  0  0  0  0  0
  -19.4445  -13.8493   43.9862 O   0  0  0  0  0  0  0  0  0  0  0  0
  -18.0466  -13.3272   45.6816 N   0  0  0  0  0  0  0  0  0  0  0  0
  -14.9448  -12.7543   46.3192 N   0  0  0  0  0  0  0  0  0  0  0  0
  -13.8701  -11.7984   44.6879 C   0  0  0  0  0  0  0  0  0  0  0  0
  -15.2118  -11.6659   44.4276 N   0  0  0  0  0  0  0  0  0  0  0  0
  -11.8274  -11.7717   43.2932 C   0  0  0  0  0  0  0  0  0  0  0  0
  -11.0019  -11.1845   42.3474 C   0  0  0  0  0  0  0  0  0  0  0  0
  -11.3020   -9.9189   41.8430 C   0  0  0  0  0  0  0  0  0  0  0  0
  -12.4065   -9.2307   42.3456 C   0  0  0  0  0  0  0  0  0  0  0  0
  -13.2319   -9.7921   43.3158 C   0  0  0  0  0  0  0  0  0  0  0  0
  -10.5094   -9.2235   40.8858 N   0  0  0  0  0  0  0  0  0  0  0  0
   -8.7481   -8.2243   41.9708 O   0  0  0  0  0  0  0  0  0  0  0  0
   -8.5121   -9.1599   39.9242 O   0  0  0  0  0  0  0  0  0  0  0  0
   -7.1283   -8.7132   39.8853 C   0  0  0  0  0  0  0  0  0  0  0  0
  -15.6625   -7.9759   45.6387 C   0  0  0  0  0  0  0  0  0  0  0  0
  -14.2909   -8.5410   45.2280 C   0  0  1  0  0  0  0  0  0  0  0  0
  -14.2988   -9.0598   43.8657 N   0  0  0  0  0  0  0  0  0  0  0  0
  -13.1861   -7.5252   45.4874 C   0  0  0  0  0  0  0  0  0  0  0  0
  -13.3967   -6.4070   45.8565 O   0  0  0  0  0  0  0  0  0  0  0  0
  -11.9714   -8.0264   45.2503 O   0  0  0  0  0  0  0  0  0  0  0  0
   -9.6213   -7.5090   45.4637 C   0  0  0  0  0  0  0  0  0  0  0  0
  -10.9066   -7.7055   46.2064 C   0  0  0  0  0  0  0  0  0  0  0  0
  1 16  1  0
  1 23  2  0
  2  3  1  6
  5  2  1  6
  3  7  1  0
  3 25  1  1
  4 23  1  0
  4 24  2  0
  4 25  1  0
  6  5  1  6
  6 38  1  0
  7 26  1  0
  7 28  2  0
  8 26  1  0
  8 27  2  0
  9 34  1  0
  9 35  2  0
  9 36  1  0
 10 27  1  0
 10 29  1  0
 10 33  2  0
 11 14  1  0
 12 13  2  0
 12 17  1  0
 13 14  1  0
 14 15  2  0
 15 16  1  0
 16 17  2  0
 17 18  1  0
 18 19  1  0
 18 22  1  0
 19 20  2  0
 20 21  1  0
 21 22  2  0
 27 28  1  0
 29 30  2  0
 30 31  1  0
 31 32  2  0
 31 34  1  0
 32 33  1  0
 33 40  1  0
 37 36  1  6
 38 39  1  1
 39 40  1  0
 39 41  1  6
 41 42  2  0
 41 43  1  0
 45 43  1  6
 44 45  1  6
M  END
$$$$
