
     RDKit          3D

 45 49  0  0  0  0  0  0  0  0999 V2000
   54.8795   33.8644   20.2600 C   0  0  0  0  0  0  0  0  0  0  0  0
   52.1239   36.7302   24.5643 C   0  0  0  0  0  0  0  0  0  0  0  0
   52.3186   36.0390   23.2064 C   0  0  1  0  0  0  0  0  0  0  0  0
   53.7847   35.9090   21.2934 C   0  0  0  0  0  0  0  0  0  0  0  0
   50.7923   36.3327   25.2739 C   0  0  0  0  0  0  0  0  0  0  0  0
   50.4915   34.8175   25.4183 C   0  0  0  0  0  0  0  0  0  0  0  0
   51.0752   36.1921   22.3795 C   0  0  0  0  0  0  0  0  0  0  0  0
   49.2882   37.1316   21.5459 C   0  0  0  0  0  0  0  0  0  0  0  0
   45.0718   30.7220   20.5718 C   0  0  0  0  0  0  0  0  0  0  0  0
   48.0258   34.8685   21.2740 C   0  0  0  0  0  0  0  0  0  0  0  0
   50.7439   31.1526   21.7102 Cl  0  0  0  0  0  0  0  0  0  0  0  0
   54.0326   30.2188   19.6551 C   0  0  0  0  0  0  0  0  0  0  0  0
   52.7988   30.1380   20.2851 C   0  0  0  0  0  0  0  0  0  0  0  0
   52.2789   31.2608   20.8971 C   0  0  0  0  0  0  0  0  0  0  0  0
   52.9593   32.4625   20.8975 C   0  0  0  0  0  0  0  0  0  0  0  0
   54.2120   32.5545   20.2697 C   0  0  0  0  0  0  0  0  0  0  0  0
   54.7446   31.4139   19.6460 C   0  0  0  0  0  0  0  0  0  0  0  0
   56.0353   31.4462   19.0330 N   0  0  0  0  0  0  0  0  0  0  0  0
   57.1195   30.6745   19.1853 C   0  0  0  0  0  0  0  0  0  0  0  0
   58.0891   31.1262   18.4383 N   0  0  0  0  0  0  0  0  0  0  0  0
   57.5827   32.2152   17.8025 N   0  0  0  0  0  0  0  0  0  0  0  0
   56.3502   32.4228   18.1491 N   0  0  0  0  0  0  0  0  0  0  0  0
   54.7343   34.7775   21.2140 C   0  0  0  0  0  0  0  0  0  0  0  0
   53.2778   36.4103   20.2837 O   0  0  0  0  0  0  0  0  0  0  0  0
   53.5554   36.4120   22.5251 N   0  0  0  0  0  0  0  0  0  0  0  0
   50.5205   37.3804   22.0694 N   0  0  0  0  0  0  0  0  0  0  0  0
   49.1482   35.7728   21.5572 C   0  0  0  0  0  0  0  0  0  0  0  0
   50.2898   35.1940   22.0543 N   0  0  0  0  0  0  0  0  0  0  0  0
   47.3265   35.0048   20.0705 C   0  0  0  0  0  0  0  0  0  0  0  0
   46.3353   34.1021   19.7194 C   0  0  0  0  0  0  0  0  0  0  0  0
   46.0398   33.0244   20.5547 C   0  0  0  0  0  0  0  0  0  0  0  0
   46.7116   32.9025   21.7712 C   0  0  0  0  0  0  0  0  0  0  0  0
   47.6908   33.8146   22.1545 C   0  0  0  0  0  0  0  0  0  0  0  0
   45.0295   32.0553   20.2939 N   0  0  0  0  0  0  0  0  0  0  0  0
   44.7108   30.1938   21.6021 O   0  0  0  0  0  0  0  0  0  0  0  0
   45.5980   30.0542   19.5253 O   0  0  0  0  0  0  0  0  0  0  0  0
   45.7609   28.6190   19.6977 C   0  0  0  0  0  0  0  0  0  0  0  0
   49.0207   34.4588   25.6785 C   0  0  0  0  0  0  0  0  0  0  0  0
   48.0540   34.6624   24.4981 C   0  0  1  0  0  0  0  0  0  0  0  0
   48.3088   33.7216   23.4140 N   0  0  0  0  0  0  0  0  0  0  0  0
   46.6078   34.6652   24.9758 C   0  0  0  0  0  0  0  0  0  0  0  0
   46.2985   34.6315   26.1309 O   0  0  0  0  0  0  0  0  0  0  0  0
   45.7397   34.7037   23.9620 O   0  0  0  0  0  0  0  0  0  0  0  0
   43.9682   33.7862   22.5995 C   0  0  0  0  0  0  0  0  0  0  0  0
   44.8492   33.5514   23.7873 C   0  0  0  0  0  0  0  0  0  0  0  0
  1 16  1  0
  1 23  2  0
  2  3  1  6
  5  2  1  6
  3  7  1  0
  3 25  1  6
  4 23  1  0
  4 24  2  0
  4 25  1  0
  6  5  1  6
  6 38  1  0
  7 26  1  0
  7 28  2  0
  8 26  1  0
  8 27  2  0
  9 34  1  0
  9 35  2  0
  9 36  1  0
 10 27  1  0
 10 29  1  0
 10 33  2  0
 11 14  1  0
 12 13  2  0
 12 17  1  0
 13 14  1  0
 14 15  2  0
 15 16  1  0
 16 17  2  0
 17 18  1  0
 18 19  1  0
 18 22  1  0
 19 20  2  0
 20 21  1  0
 21 22  2  0
 27 28  1  0
 29 30  2  0
 30 31  1  0
 31 32  2  0
 31 34  1  0
 32 33  1  0
 33 40  1  0
 37 36  1  6
 38 39  1  1
 39 40  1  0
 39 41  1  1
 41 42  2  0
 41 43  1  0
 45 43  1  6
 44 45  1  6
M  END
$$$$
