
     RDKit          3D

 45 49  0  0  0  0  0  0  0  0999 V2000
   72.5080   72.9817   52.1533 C   0  0  0  0  0  0  0  0  0  0  0  0
   72.3455   70.6538   49.6209 C   0  0  0  0  0  0  0  0  0  0  0  0
   71.8196   69.3579   50.2562 C   0  0  1  0  0  0  0  0  0  0  0  0
   71.5437   70.6365   52.2849 C   0  0  0  0  0  0  0  0  0  0  0  0
   72.4960   70.5642   48.0704 C   0  0  0  0  0  0  0  0  0  0  0  0
   71.2689   70.0570   47.2678 C   0  0  0  0  0  0  0  0  0  0  0  0
   72.6146   68.1894   49.7508 C   0  0  0  0  0  0  0  0  0  0  0  0
   74.3497   67.0488   49.0728 C   0  0  0  0  0  0  0  0  0  0  0  0
   72.5837   62.1902   43.5756 C   0  0  0  0  0  0  0  0  0  0  0  0
   72.9414   65.5388   47.4835 C   0  0  0  0  0  0  0  0  0  0  0  0
   73.8289   72.2504   57.0808 Cl  0  0  0  0  0  0  0  0  0  0  0  0
   74.8604   74.9766   54.3578 C   0  0  0  0  0  0  0  0  0  0  0  0
   74.7766   74.2515   55.5380 C   0  0  0  0  0  0  0  0  0  0  0  0
   73.9544   73.1440   55.5926 C   0  0  0  0  0  0  0  0  0  0  0  0
   73.2125   72.7418   54.4995 C   0  0  0  0  0  0  0  0  0  0  0  0
   73.2834   73.4719   53.3021 C   0  0  0  0  0  0  0  0  0  0  0  0
   74.1188   74.5998   53.2427 C   0  0  0  0  0  0  0  0  0  0  0  0
   74.1901   75.4005   52.0609 N   0  0  0  0  0  0  0  0  0  0  0  0
   73.2420   75.9724   51.3072 C   0  0  0  0  0  0  0  0  0  0  0  0
   73.7929   76.5712   50.2873 N   0  0  0  0  0  0  0  0  0  0  0  0
   75.1289   76.3607   50.4188 N   0  0  0  0  0  0  0  0  0  0  0  0
   75.3853   75.6578   51.4783 N   0  0  0  0  0  0  0  0  0  0  0  0
   72.4422   71.7044   51.7940 C   0  0  0  0  0  0  0  0  0  0  0  0
   70.7511   70.8238   53.2146 O   0  0  0  0  0  0  0  0  0  0  0  0
   71.6860   69.4237   51.7091 N   0  0  0  0  0  0  0  0  0  0  0  0
   73.9544   68.0898   49.8568 N   0  0  0  0  0  0  0  0  0  0  0  0
   73.2065   66.5484   48.5171 C   0  0  0  0  0  0  0  0  0  0  0  0
   72.1215   67.2542   48.9754 N   0  0  0  0  0  0  0  0  0  0  0  0
   73.5272   64.2741   47.5986 C   0  0  0  0  0  0  0  0  0  0  0  0
   73.2137   63.2626   46.7047 C   0  0  0  0  0  0  0  0  0  0  0  0
   72.2838   63.4869   45.6892 C   0  0  0  0  0  0  0  0  0  0  0  0
   71.7212   64.7559   45.5501 C   0  0  0  0  0  0  0  0  0  0  0  0
   72.0444   65.7928   46.4210 C   0  0  0  0  0  0  0  0  0  0  0  0
   71.9084   62.5217   44.7117 N   0  0  0  0  0  0  0  0  0  0  0  0
   73.7432   62.4479   43.3313 O   0  0  0  0  0  0  0  0  0  0  0  0
   71.7621   61.5343   42.7314 O   0  0  0  0  0  0  0  0  0  0  0  0
   72.3033   61.2340   41.4150 C   0  0  0  0  0  0  0  0  0  0  0  0
   71.5730   69.5421   45.8529 C   0  0  0  0  0  0  0  0  0  0  0  0
   72.3347   68.2073   45.7662 C   0  0  1  0  0  0  0  0  0  0  0  0
   71.5259   67.0852   46.2264 N   0  0  0  0  0  0  0  0  0  0  0  0
   72.9207   68.0066   44.3747 C   0  0  0  0  0  0  0  0  0  0  0  0
   72.2585   67.7278   43.4182 O   0  0  0  0  0  0  0  0  0  0  0  0
   74.2454   68.1721   44.3543 O   0  0  0  0  0  0  0  0  0  0  0  0
   73.8241   70.5315   44.6576 C   0  0  0  0  0  0  0  0  0  0  0  0
   74.7569   69.5173   44.0716 C   0  0  0  0  0  0  0  0  0  0  0  0
  1 16  1  0
  1 23  2  0
  2  3  1  6
  5  2  1  6
  3  7  1  0
  3 25  1  1
  4 23  1  0
  4 24  2  0
  4 25  1  0
  6  5  1  6
  6 38  1  0
  7 26  1  0
  7 28  2  0
  8 26  1  0
  8 27  2  0
  9 34  1  0
  9 35  2  0
  9 36  1  0
 10 27  1  0
 10 29  1  0
 10 33  2  0
 11 14  1  0
 12 13  2  0
 12 17  1  0
 13 14  1  0
 14 15  2  0
 15 16  1  0
 16 17  2  0
 17 18  1  0
 18 19  1  0
 18 22  1  0
 19 20  2  0
 20 21  1  0
 21 22  2  0
 27 28  1  0
 29 30  2  0
 30 31  1  0
 31 32  2  0
 31 34  1  0
 32 33  1  0
 33 40  1  0
 37 36  1  6
 38 39  1  1
 39 40  1  0
 39 41  1  6
 41 42  2  0
 41 43  1  0
 45 43  1  6
 44 45  1  6
M  END
$$$$
