
     RDKit          3D

 45 49  0  0  0  0  0  0  0  0999 V2000
-4927.3916-6785.5957  109.5467 C   0  0  0  0  0  0  0  0  0  0  0  0
-4927.2090-6788.8022  112.0863 C   0  0  0  0  0  0  0  0  0  0  0  0
-4927.0337-6787.6577  113.0948 C   0  0  1  0  0  0  0  0  0  0  0  0
-4927.9946-6785.7285  112.0093 C   0  0  0  0  0  0  0  0  0  0  0  0
-4926.0879-6789.8833  112.1786 C   0  0  0  0  0  0  0  0  0  0  0  0
-4925.7876-6790.4731  113.5816 C   0  0  0  0  0  0  0  0  0  0  0  0
-4925.6260-6787.1377  113.0275 C   0  0  0  0  0  0  0  0  0  0  0  0
-4923.7173-6786.5415  112.1506 C   0  0  0  0  0  0  0  0  0  0  0  0
-4918.5591-6788.8608  117.2720 C   0  0  0  0  0  0  0  0  0  0  0  0
-4922.3564-6787.1597  114.2862 C   0  0  0  0  0  0  0  0  0  0  0  0
-4931.1855-6782.2041  108.7330 Cl  0  0  0  0  0  0  0  0  0  0  0  0
-4927.2461-6781.8188  109.2261 C   0  0  0  0  0  0  0  0  0  0  0  0
-4928.5908-6781.5312  109.0331 C   0  0  0  0  0  0  0  0  0  0  0  0
-4929.5044-6782.5645  109.0016 C   0  0  0  0  0  0  0  0  0  0  0  0
-4929.1138-6783.8799  109.1565 C   0  0  0  0  0  0  0  0  0  0  0  0
-4927.7539-6784.1851  109.3449 C   0  0  0  0  0  0  0  0  0  0  0  0
-4926.8218-6783.1372  109.3773 C   0  0  0  0  0  0  0  0  0  0  0  0
-4925.4243-6783.3994  109.5217 N   0  0  0  0  0  0  0  0  0  0  0  0
-4924.3867-6782.6040  109.8175 C   0  0  0  0  0  0  0  0  0  0  0  0
-4923.2817-6783.2954  109.7875 N   0  0  0  0  0  0  0  0  0  0  0  0
-4923.6509-6784.5620  109.4621 N   0  0  0  0  0  0  0  0  0  0  0  0
-4924.9346-6784.6426  109.2973 N   0  0  0  0  0  0  0  0  0  0  0  0
-4927.5249-6786.2373  110.7018 C   0  0  0  0  0  0  0  0  0  0  0  0
-4928.2476-6784.5332  112.1949 O   0  0  0  0  0  0  0  0  0  0  0  0
-4928.0688-6786.6313  113.0107 N   0  0  0  0  0  0  0  0  0  0  0  0
-4925.0483-6786.6777  111.9003 N   0  0  0  0  0  0  0  0  0  0  0  0
-4923.5415-6786.9302  113.4488 C   0  0  0  0  0  0  0  0  0  0  0  0
-4924.7539-6787.2705  113.9968 N   0  0  0  0  0  0  0  0  0  0  0  0
-4921.3809-6786.1611  114.3750 C   0  0  0  0  0  0  0  0  0  0  0  0
-4920.3071-6786.2935  115.2391 C   0  0  0  0  0  0  0  0  0  0  0  0
-4920.1987-6787.4199  116.0556 C   0  0  0  0  0  0  0  0  0  0  0  0
-4921.1514-6788.4326  115.9473 C   0  0  0  0  0  0  0  0  0  0  0  0
-4922.2241-6788.3301  115.0653 C   0  0  0  0  0  0  0  0  0  0  0  0
-4919.1250-6787.6611  116.9607 N   0  0  0  0  0  0  0  0  0  0  0  0
-4918.8145-6789.5410  118.2419 O   0  0  0  0  0  0  0  0  0  0  0  0
-4917.6421-6789.1855  116.3399 O   0  0  0  0  0  0  0  0  0  0  0  0
-4916.3193-6789.5356  116.8373 C   0  0  0  0  0  0  0  0  0  0  0  0
-4924.4199-6791.1582  113.7301 C   0  0  0  0  0  0  0  0  0  0  0  0
-4923.1924-6790.2275  113.7234 C   0  0  1  0  0  0  0  0  0  0  0  0
-4923.1353-6789.3882  114.9139 N   0  0  0  0  0  0  0  0  0  0  0  0
-4921.9146-6791.0190  113.4729 C   0  0  0  0  0  0  0  0  0  0  0  0
-4921.8589-6791.9565  112.7335 O   0  0  0  0  0  0  0  0  0  0  0  0
-4920.8809-6790.5454  114.1739 O   0  0  0  0  0  0  0  0  0  0  0  0
-4919.2178-6792.1069  113.3827 C   0  0  0  0  0  0  0  0  0  0  0  0
-4919.5469-6790.6606  113.5764 C   0  0  0  0  0  0  0  0  0  0  0  0
  1 16  1  0
  1 23  2  0
  2  3  1  6
  5  2  1  6
  3  7  1  0
  3 25  1  6
  4 23  1  0
  4 24  2  0
  4 25  1  0
  6  5  1  6
  6 38  1  0
  7 26  1  0
  7 28  2  0
  8 26  1  0
  8 27  2  0
  9 34  1  0
  9 35  2  0
  9 36  1  0
 10 27  1  0
 10 29  1  0
 10 33  2  0
 11 14  1  0
 12 13  2  0
 12 17  1  0
 13 14  1  0
 14 15  2  0
 15 16  1  0
 16 17  2  0
 17 18  1  0
 18 19  1  0
 18 22  1  0
 19 20  2  0
 20 21  1  0
 21 22  2  0
 27 28  1  0
 29 30  2  0
 30 31  1  0
 31 32  2  0
 31 34  1  0
 32 33  1  0
 33 40  1  0
 37 36  1  6
 38 39  1  1
 39 40  1  0
 39 41  1  1
 41 42  2  0
 41 43  1  0
 45 43  1  6
 44 45  1  6
M  END
$$$$
