
     RDKit          3D

 45 49  0  0  0  0  0  0  0  0999 V2000
 3276.6516  540.2019-2808.0886 C   0  0  0  0  0  0  0  0  0  0  0  0
 3276.1755  535.8569-2806.6389 C   0  0  0  0  0  0  0  0  0  0  0  0
 3275.2976  536.9564-2807.2546 C   0  0  1  0  0  0  0  0  0  0  0  0
 3275.1731  538.4359-2809.1575 C   0  0  0  0  0  0  0  0  0  0  0  0
 3275.8118  535.5332-2805.1567 C   0  0  0  0  0  0  0  0  0  0  0  0
 3274.3206  535.2394-2804.8413 C   0  0  0  0  0  0  0  0  0  0  0  0
 3275.2451  538.1373-2806.3291 C   0  0  0  0  0  0  0  0  0  0  0  0
 3275.9336  539.6208-2804.8813 C   0  0  0  0  0  0  0  0  0  0  0  0
 3269.1843  540.8203-2801.2949 C   0  0  0  0  0  0  0  0  0  0  0  0
 3273.5833  539.8878-2803.7900 C   0  0  0  0  0  0  0  0  0  0  0  0
 3281.5659  541.2554-2809.2275 Cl  0  0  0  0  0  0  0  0  0  0  0  0
 3279.8213  539.3516-2806.1885 C   0  0  0  0  0  0  0  0  0  0  0  0
 3280.7744  539.9244-2807.0171 C   0  0  0  0  0  0  0  0  0  0  0  0
 3280.3679  540.5602-2808.1743 C   0  0  0  0  0  0  0  0  0  0  0  0
 3279.0354  540.6389-2808.5242 C   0  0  0  0  0  0  0  0  0  0  0  0
 3278.0618  540.0566-2807.6963 C   0  0  0  0  0  0  0  0  0  0  0  0
 3278.4709  539.4080-2806.5188 C   0  0  0  0  0  0  0  0  0  0  0  0
 3277.5220  538.7622-2805.6680 N   0  0  0  0  0  0  0  0  0  0  0  0
 3276.3425  538.1799-2805.9199 C   0  0  0  0  0  0  0  0  0  0  0  0
 3275.8069  537.7670-2804.8032 N   0  0  0  0  0  0  0  0  0  0  0  0
 3276.6926  538.1068-2803.8279 N   0  0  0  0  0  0  0  0  0  0  0  0
 3277.7256  538.7070-2804.3308 N   0  0  0  0  0  0  0  0  0  0  0  0
 3276.1052  539.5847-2809.1301 C   0  0  0  0  0  0  0  0  0  0  0  0
 3274.0142  538.5429-2809.5725 O   0  0  0  0  0  0  0  0  0  0  0  0
 3275.6357  537.2787-2808.6377 N   0  0  0  0  0  0  0  0  0  0  0  0
 3276.3354  538.7941-2805.8865 N   0  0  0  0  0  0  0  0  0  0  0  0
 3274.5872  539.4285-2804.7588 C   0  0  0  0  0  0  0  0  0  0  0  0
 3274.1619  538.5176-2805.6943 N   0  0  0  0  0  0  0  0  0  0  0  0
 3273.4900  541.2527-2803.4995 C   0  0  0  0  0  0  0  0  0  0  0  0
 3272.4841  541.7360-2802.6768 C   0  0  0  0  0  0  0  0  0  0  0  0
 3271.5322  540.8651-2802.1465 C   0  0  0  0  0  0  0  0  0  0  0  0
 3271.6404  539.4990-2802.4067 C   0  0  0  0  0  0  0  0  0  0  0  0
 3272.6587  538.9907-2803.2083 C   0  0  0  0  0  0  0  0  0  0  0  0
 3270.4751  541.2586-2801.2776 N   0  0  0  0  0  0  0  0  0  0  0  0
 3268.4883  540.6063-2800.3252 O   0  0  0  0  0  0  0  0  0  0  0  0
 3268.7827  540.6364-2802.5686 O   0  0  0  0  0  0  0  0  0  0  0  0
 3269.3699  541.5235-2803.5610 C   0  0  0  0  0  0  0  0  0  0  0  0
 3273.9167  535.3861-2803.3669 C   0  0  0  0  0  0  0  0  0  0  0  0
 3273.8772  536.8223-2802.8137 C   0  0  1  0  0  0  0  0  0  0  0  0
 3272.7988  537.6055-2803.4038 N   0  0  0  0  0  0  0  0  0  0  0  0
 3273.8652  536.8173-2801.2910 C   0  0  0  0  0  0  0  0  0  0  0  0
 3274.7129  537.3386-2800.6270 O   0  0  0  0  0  0  0  0  0  0  0  0
 3272.8113  536.1641-2800.7949 O   0  0  0  0  0  0  0  0  0  0  0  0
 3270.4031  536.0345-2800.6580 C   0  0  0  0  0  0  0  0  0  0  0  0
 3271.5916  536.9379-2800.5422 C   0  0  0  0  0  0  0  0  0  0  0  0
  1 16  1  0
  1 23  2  0
  2  3  1  6
  5  2  1  6
  3  7  1  0
  3 25  1  6
  4 23  1  0
  4 24  2  0
  4 25  1  0
  6  5  1  6
  6 38  1  0
  7 26  1  0
  7 28  2  0
  8 26  1  0
  8 27  2  0
  9 34  1  0
  9 35  2  0
  9 36  1  0
 10 27  1  0
 10 29  1  0
 10 33  2  0
 11 14  1  0
 12 13  2  0
 12 17  1  0
 13 14  1  0
 14 15  2  0
 15 16  1  0
 16 17  2  0
 17 18  1  0
 18 19  1  0
 18 22  1  0
 19 20  2  0
 20 21  1  0
 21 22  2  0
 27 28  1  0
 29 30  2  0
 30 31  1  0
 31 32  2  0
 31 34  1  0
 32 33  1  0
 33 40  1  0
 37 36  1  6
 38 39  1  1
 39 40  1  0
 39 41  1  1
 41 42  2  0
 41 43  1  0
 45 43  1  6
 44 45  1  6
M  END
$$$$
