
     RDKit          3D

 45 49  0  0  0  0  0  0  0  0999 V2000
   -9.8447  -26.2731   -0.9926 C   0  0  0  0  0  0  0  0  0  0  0  0
  -10.7923  -20.8764   -1.4284 C   0  0  0  0  0  0  0  0  0  0  0  0
  -10.4366  -21.4897   -0.0658 C   0  0  1  0  0  0  0  0  0  0  0  0
  -10.4761  -23.8649   -0.4937 C   0  0  0  0  0  0  0  0  0  0  0  0
  -11.5354  -19.5091   -1.3147 C   0  0  0  0  0  0  0  0  0  0  0  0
  -10.8889  -18.4242   -0.4134 C   0  0  0  0  0  0  0  0  0  0  0  0
  -11.6473  -21.4844    0.8214 C   0  0  0  0  0  0  0  0  0  0  0  0
  -13.7482  -21.6397    1.3988 C   0  0  0  0  0  0  0  0  0  0  0  0
  -13.6483  -16.5294    7.1974 C   0  0  0  0  0  0  0  0  0  0  0  0
  -13.5092  -19.9255    3.3466 C   0  0  0  0  0  0  0  0  0  0  0  0
  -11.9808  -30.8853   -1.8436 Cl  0  0  0  0  0  0  0  0  0  0  0  0
  -11.2754  -27.7342   -4.1852 C   0  0  0  0  0  0  0  0  0  0  0  0
  -11.6893  -28.9782   -3.7305 C   0  0  0  0  0  0  0  0  0  0  0  0
  -11.4856  -29.3150   -2.4075 C   0  0  0  0  0  0  0  0  0  0  0  0
  -10.8781  -28.4425   -1.5262 C   0  0  0  0  0  0  0  0  0  0  0  0
  -10.4482  -27.1837   -1.9764 C   0  0  0  0  0  0  0  0  0  0  0  0
  -10.6535  -26.8374   -3.3223 C   0  0  0  0  0  0  0  0  0  0  0  0
  -10.1934  -25.5862   -3.8379 N   0  0  0  0  0  0  0  0  0  0  0  0
  -10.7001  -24.3481   -3.7702 C   0  0  0  0  0  0  0  0  0  0  0  0
   -9.9428  -23.5258   -4.4428 N   0  0  0  0  0  0  0  0  0  0  0  0
   -8.9327  -24.2856   -4.9419 N   0  0  0  0  0  0  0  0  0  0  0  0
   -9.0683  -25.5264   -4.5893 N   0  0  0  0  0  0  0  0  0  0  0  0
   -9.7410  -24.9598   -1.1641 C   0  0  0  0  0  0  0  0  0  0  0  0
  -11.6972  -23.9135   -0.3088 O   0  0  0  0  0  0  0  0  0  0  0  0
   -9.7517  -22.7765   -0.1573 N   0  0  0  0  0  0  0  0  0  0  0  0
  -12.8207  -22.0612    0.4951 N   0  0  0  0  0  0  0  0  0  0  0  0
  -13.0809  -20.8111    2.2556 C   0  0  0  0  0  0  0  0  0  0  0  0
  -11.7562  -20.7469    1.9000 N   0  0  0  0  0  0  0  0  0  0  0  0
  -14.3262  -20.4370    4.3599 C   0  0  0  0  0  0  0  0  0  0  0  0
  -14.6595  -19.6643    5.4609 C   0  0  0  0  0  0  0  0  0  0  0  0
  -14.1589  -18.3681    5.5859 C   0  0  0  0  0  0  0  0  0  0  0  0
  -13.3705  -17.8418    4.5624 C   0  0  0  0  0  0  0  0  0  0  0  0
  -13.0476  -18.5925    3.4355 C   0  0  0  0  0  0  0  0  0  0  0  0
  -14.4565  -17.4893    6.6662 N   0  0  0  0  0  0  0  0  0  0  0  0
  -13.5638  -16.2336    8.3704 O   0  0  0  0  0  0  0  0  0  0  0  0
  -12.9492  -15.9265    6.2146 O   0  0  0  0  0  0  0  0  0  0  0  0
  -13.0133  -14.4737    6.1814 C   0  0  0  0  0  0  0  0  0  0  0  0
  -11.8319  -17.3035    0.0497 C   0  0  0  0  0  0  0  0  0  0  0  0
  -12.8998  -17.7004    1.0848 C   0  0  1  0  0  0  0  0  0  0  0  0
  -12.3128  -18.0264    2.3788 N   0  0  0  0  0  0  0  0  0  0  0  0
  -13.9986  -16.6484    1.1611 C   0  0  0  0  0  0  0  0  0  0  0  0
  -14.5799  -16.3794    2.1714 O   0  0  0  0  0  0  0  0  0  0  0  0
  -14.2341  -16.0755   -0.0217 O   0  0  0  0  0  0  0  0  0  0  0  0
  -14.0445  -15.9270   -2.4255 C   0  0  0  0  0  0  0  0  0  0  0  0
  -13.6464  -16.7044   -1.2092 C   0  0  0  0  0  0  0  0  0  0  0  0
  1 16  1  0
  1 23  2  0
  2  3  1  6
  5  2  1  6
  3  7  1  0
  3 25  1  6
  4 23  1  0
  4 24  2  0
  4 25  1  0
  6  5  1  6
  6 38  1  0
  7 26  1  0
  7 28  2  0
  8 26  1  0
  8 27  2  0
  9 34  1  0
  9 35  2  0
  9 36  1  0
 10 27  1  0
 10 29  1  0
 10 33  2  0
 11 14  1  0
 12 13  2  0
 12 17  1  0
 13 14  1  0
 14 15  2  0
 15 16  1  0
 16 17  2  0
 17 18  1  0
 18 19  1  0
 18 22  1  0
 19 20  2  0
 20 21  1  0
 21 22  2  0
 27 28  1  0
 29 30  2  0
 30 31  1  0
 31 32  2  0
 31 34  1  0
 32 33  1  0
 33 40  1  0
 37 36  1  6
 38 39  1  1
 39 40  1  0
 39 41  1  1
 41 42  2  0
 41 43  1  0
 45 43  1  6
 44 45  1  6
M  END
$$$$
