
     RDKit          3D

 45 49  0  0  0  0  0  0  0  0999 V2000
  123.7128  -21.8156  214.8164 C   0  0  0  0  0  0  0  0  0  0  0  0
  120.6731  -18.3131  217.5033 C   0  0  0  0  0  0  0  0  0  0  0  0
  121.9509  -19.1106  217.2020 C   0  0  1  0  0  0  0  0  0  0  0  0
  122.4337  -21.4653  216.9816 C   0  0  0  0  0  0  0  0  0  0  0  0
  120.7005  -16.8630  216.9280 C   0  0  0  0  0  0  0  0  0  0  0  0
  121.0676  -16.7024  215.4291 C   0  0  0  0  0  0  0  0  0  0  0  0
  123.1546  -18.2925  217.5693 C   0  0  0  0  0  0  0  0  0  0  0  0
  124.3985  -16.8938  218.6953 C   0  0  0  0  0  0  0  0  0  0  0  0
  128.2548  -13.6830  212.8575 C   0  0  0  0  0  0  0  0  0  0  0  0
  125.7116  -16.1090  216.5861 C   0  0  0  0  0  0  0  0  0  0  0  0
  122.7953  -23.7405  210.1246 Cl  0  0  0  0  0  0  0  0  0  0  0  0
  123.6255  -20.0715  211.4512 C   0  0  0  0  0  0  0  0  0  0  0  0
  123.3171  -21.1397  210.6208 C   0  0  0  0  0  0  0  0  0  0  0  0
  123.1560  -22.3961  211.1694 C   0  0  0  0  0  0  0  0  0  0  0  0
  123.2958  -22.6144  212.5258 C   0  0  0  0  0  0  0  0  0  0  0  0
  123.6152  -21.5426  213.3751 C   0  0  0  0  0  0  0  0  0  0  0  0
  123.7803  -20.2625  212.8205 C   0  0  0  0  0  0  0  0  0  0  0  0
  124.1494  -19.1494  213.6375 N   0  0  0  0  0  0  0  0  0  0  0  0
  125.3407  -18.6940  214.0470 C   0  0  0  0  0  0  0  0  0  0  0  0
  125.1723  -17.6636  214.8293 N   0  0  0  0  0  0  0  0  0  0  0  0
  123.8283  -17.4776  214.9032 N   0  0  0  0  0  0  0  0  0  0  0  0
  123.1982  -18.3623  214.1942 N   0  0  0  0  0  0  0  0  0  0  0  0
  123.1521  -21.0593  215.7537 C   0  0  0  0  0  0  0  0  0  0  0  0
  122.2349  -22.6527  217.2614 O   0  0  0  0  0  0  0  0  0  0  0  0
  121.9440  -20.4660  217.7460 N   0  0  0  0  0  0  0  0  0  0  0  0
  123.3674  -17.7778  218.7965 N   0  0  0  0  0  0  0  0  0  0  0  0
  124.7774  -16.9151  217.3831 C   0  0  0  0  0  0  0  0  0  0  0  0
  124.0086  -17.8203  216.6938 N   0  0  0  0  0  0  0  0  0  0  0  0
  127.0237  -15.9382  217.0390 C   0  0  0  0  0  0  0  0  0  0  0  0
  127.9626  -15.2784  216.2621 C   0  0  0  0  0  0  0  0  0  0  0  0
  127.6154  -14.7974  214.9994 C   0  0  0  0  0  0  0  0  0  0  0  0
  126.2999  -14.9363  214.5567 C   0  0  0  0  0  0  0  0  0  0  0  0
  125.3354  -15.5713  215.3341 C   0  0  0  0  0  0  0  0  0  0  0  0
  128.4993  -14.0916  214.1342 N   0  0  0  0  0  0  0  0  0  0  0  0
  128.3590  -12.5507  212.4361 O   0  0  0  0  0  0  0  0  0  0  0  0
  127.8554  -14.7325  212.1111 O   0  0  0  0  0  0  0  0  0  0  0  0
  127.8021  -14.5132  210.6741 C   0  0  0  0  0  0  0  0  0  0  0  0
  121.5373  -15.3008  215.0114 C   0  0  0  0  0  0  0  0  0  0  0  0
  122.9238  -14.8699  215.5227 C   0  0  1  0  0  0  0  0  0  0  0  0
  123.9974  -15.6408  214.9077 N   0  0  0  0  0  0  0  0  0  0  0  0
  123.1047  -13.3630  215.3951 C   0  0  0  0  0  0  0  0  0  0  0  0
  123.7797  -12.7178  216.1428 O   0  0  0  0  0  0  0  0  0  0  0  0
  122.4229  -12.8565  214.3649 O   0  0  0  0  0  0  0  0  0  0  0  0
  124.4463  -12.1263  213.2655 C   0  0  0  0  0  0  0  0  0  0  0  0
  123.1099  -12.7734  213.0718 C   0  0  0  0  0  0  0  0  0  0  0  0
  1 16  1  0
  1 23  2  0
  2  3  1  6
  5  2  1  6
  3  7  1  0
  3 25  1  1
  4 23  1  0
  4 24  2  0
  4 25  1  0
  6  5  1  6
  6 38  1  0
  7 26  1  0
  7 28  2  0
  8 26  1  0
  8 27  2  0
  9 34  1  0
  9 35  2  0
  9 36  1  0
 10 27  1  0
 10 29  1  0
 10 33  2  0
 11 14  1  0
 12 13  2  0
 12 17  1  0
 13 14  1  0
 14 15  2  0
 15 16  1  0
 16 17  2  0
 17 18  1  0
 18 19  1  0
 18 22  1  0
 19 20  2  0
 20 21  1  0
 21 22  2  0
 27 28  1  0
 29 30  2  0
 30 31  1  0
 31 32  2  0
 31 34  1  0
 32 33  1  0
 33 40  1  0
 37 36  1  6
 38 39  1  1
 39 40  1  0
 39 41  1  6
 41 42  2  0
 41 43  1  0
 45 43  1  6
 44 45  1  6
M  END
$$$$
