
     RDKit          3D

 45 49  0  0  0  0  0  0  0  0999 V2000
  -43.0027  -66.8825  -67.1027 C   0  0  0  0  0  0  0  0  0  0  0  0
  -39.9987  -65.7132  -63.5054 C   0  0  0  0  0  0  0  0  0  0  0  0
  -39.3997  -65.7522  -64.9193 C   0  0  1  0  0  0  0  0  0  0  0  0
  -40.6917  -67.3641  -66.1678 C   0  0  0  0  0  0  0  0  0  0  0  0
  -38.9481  -65.3873  -62.3988 C   0  0  0  0  0  0  0  0  0  0  0  0
  -38.0554  -64.1370  -62.6157 C   0  0  0  0  0  0  0  0  0  0  0  0
  -38.1698  -66.6127  -64.9227 C   0  0  0  0  0  0  0  0  0  0  0  0
  -36.8466  -68.2738  -64.4115 C   0  0  0  0  0  0  0  0  0  0  0  0
  -29.6053  -66.1826  -64.0805 C   0  0  0  0  0  0  0  0  0  0  0  0
  -34.6808  -66.8599  -64.7265 C   0  0  0  0  0  0  0  0  0  0  0  0
  -46.8955  -65.7508  -70.2848 Cl  0  0  0  0  0  0  0  0  0  0  0  0
  -44.8236  -69.0881  -69.5915 C   0  0  0  0  0  0  0  0  0  0  0  0
  -45.7320  -68.1800  -70.1166 C   0  0  0  0  0  0  0  0  0  0  0  0
  -45.7384  -66.8826  -69.6451 C   0  0  0  0  0  0  0  0  0  0  0  0
  -44.8620  -66.4682  -68.6616 C   0  0  0  0  0  0  0  0  0  0  0  0
  -43.9432  -67.3800  -68.1172 C   0  0  0  0  0  0  0  0  0  0  0  0
  -43.9338  -68.7013  -68.5943 C   0  0  0  0  0  0  0  0  0  0  0  0
  -43.0481  -69.6767  -68.0403 N   0  0  0  0  0  0  0  0  0  0  0  0
  -43.1349  -71.0093  -67.9353 C   0  0  0  0  0  0  0  0  0  0  0  0
  -42.0912  -71.4693  -67.3018 N   0  0  0  0  0  0  0  0  0  0  0  0
  -41.3341  -70.3800  -67.0070 N   0  0  0  0  0  0  0  0  0  0  0  0
  -41.8948  -69.2943  -67.4422 N   0  0  0  0  0  0  0  0  0  0  0  0
  -42.1096  -67.6455  -66.4822 C   0  0  0  0  0  0  0  0  0  0  0  0
  -39.8589  -68.2677  -66.0343 O   0  0  0  0  0  0  0  0  0  0  0  0
  -40.3700  -66.0689  -65.9640 N   0  0  0  0  0  0  0  0  0  0  0  0
  -38.1513  -67.8986  -64.5199 N   0  0  0  0  0  0  0  0  0  0  0  0
  -36.1148  -67.1761  -64.7658 C   0  0  0  0  0  0  0  0  0  0  0  0
  -36.9581  -66.1500  -65.1142 N   0  0  0  0  0  0  0  0  0  0  0  0
  -33.7701  -67.7470  -65.3091 C   0  0  0  0  0  0  0  0  0  0  0  0
  -32.4232  -67.4307  -65.3892 C   0  0  0  0  0  0  0  0  0  0  0  0
  -31.9607  -66.2044  -64.9111 C   0  0  0  0  0  0  0  0  0  0  0  0
  -32.8595  -65.3300  -64.2998 C   0  0  0  0  0  0  0  0  0  0  0  0
  -34.2114  -65.6416  -64.1847 C   0  0  0  0  0  0  0  0  0  0  0  0
  -30.5973  -65.7937  -64.9299 N   0  0  0  0  0  0  0  0  0  0  0  0
  -29.3712  -67.3184  -63.7257 O   0  0  0  0  0  0  0  0  0  0  0  0
  -28.9117  -65.1038  -63.6647 O   0  0  0  0  0  0  0  0  0  0  0  0
  -27.7263  -64.7673  -64.4379 C   0  0  0  0  0  0  0  0  0  0  0  0
  -36.7601  -64.1001  -61.7908 C   0  0  0  0  0  0  0  0  0  0  0  0
  -35.6663  -65.1027  -62.2008 C   0  0  1  0  0  0  0  0  0  0  0  0
  -35.0929  -64.7844  -63.5028 N   0  0  0  0  0  0  0  0  0  0  0  0
  -34.6275  -65.2533  -61.0973 C   0  0  0  0  0  0  0  0  0  0  0  0
  -34.4711  -66.2644  -60.4773 O   0  0  0  0  0  0  0  0  0  0  0  0
  -33.9266  -64.1332  -60.9052 O   0  0  0  0  0  0  0  0  0  0  0  0
  -35.3104  -63.0797  -62.5819 C   0  0  0  0  0  0  0  0  0  0  0  0
  -34.5455  -62.8674  -61.3122 C   0  0  0  0  0  0  0  0  0  0  0  0
  1 16  1  0
  1 23  2  0
  2  3  1  6
  5  2  1  6
  3  7  1  0
  3 25  1  6
  4 23  1  0
  4 24  2  0
  4 25  1  0
  6  5  1  6
  6 38  1  0
  7 26  1  0
  7 28  2  0
  8 26  1  0
  8 27  2  0
  9 34  1  0
  9 35  2  0
  9 36  1  0
 10 27  1  0
 10 29  1  0
 10 33  2  0
 11 14  1  0
 12 13  2  0
 12 17  1  0
 13 14  1  0
 14 15  2  0
 15 16  1  0
 16 17  2  0
 17 18  1  0
 18 19  1  0
 18 22  1  0
 19 20  2  0
 20 21  1  0
 21 22  2  0
 27 28  1  0
 29 30  2  0
 30 31  1  0
 31 32  2  0
 31 34  1  0
 32 33  1  0
 33 40  1  0
 37 36  1  6
 38 39  1  1
 39 40  1  0
 39 41  1  1
 41 42  2  0
 41 43  1  0
 45 43  1  6
 44 45  1  6
M  END
$$$$
