
     RDKit          3D

 45 49  0  0  0  0  0  0  0  0999 V2000
    9.9558   40.3312  101.1301 C   0  0  0  0  0  0  0  0  0  0  0  0
    9.0294   45.1095  104.0450 C   0  0  0  0  0  0  0  0  0  0  0  0
    9.0065   43.6408  103.5959 C   0  0  1  0  0  0  0  0  0  0  0  0
    9.6018   42.8308  101.4014 C   0  0  0  0  0  0  0  0  0  0  0  0
    9.3485   45.2862  105.5621 C   0  0  0  0  0  0  0  0  0  0  0  0
   10.6043   44.5590  106.1112 C   0  0  0  0  0  0  0  0  0  0  0  0
    8.1507   42.8398  104.5335 C   0  0  0  0  0  0  0  0  0  0  0  0
    6.4898   42.3652  105.8705 C   0  0  0  0  0  0  0  0  0  0  0  0
    9.7976   36.8819  110.2126 C   0  0  0  0  0  0  0  0  0  0  0  0
    7.9149   40.7468  107.3330 C   0  0  0  0  0  0  0  0  0  0  0  0
   10.2311   35.1962  101.4698 Cl  0  0  0  0  0  0  0  0  0  0  0  0
    8.3556   37.6654   98.9606 C   0  0  0  0  0  0  0  0  0  0  0  0
    8.8136   36.5175   99.5916 C   0  0  0  0  0  0  0  0  0  0  0  0
    9.6353   36.6360  100.6945 C   0  0  0  0  0  0  0  0  0  0  0  0
   10.0128   37.8710  101.1836 C   0  0  0  0  0  0  0  0  0  0  0  0
    9.5617   39.0396  100.5488 C   0  0  0  0  0  0  0  0  0  0  0  0
    8.7256   38.9232   99.4260 C   0  0  0  0  0  0  0  0  0  0  0  0
    8.2775   40.0822   98.7197 N   0  0  0  0  0  0  0  0  0  0  0  0
    8.9344   41.1378   98.2213 C   0  0  0  0  0  0  0  0  0  0  0  0
    8.0842   41.9773   97.6972 N   0  0  0  0  0  0  0  0  0  0  0  0
    6.8595   41.4172   97.8789 N   0  0  0  0  0  0  0  0  0  0  0  0
    6.9569   40.2788   98.4929 N   0  0  0  0  0  0  0  0  0  0  0  0
    9.2610   41.4538  100.9818 C   0  0  0  0  0  0  0  0  0  0  0  0
   10.6830   43.3549  101.1112 O   0  0  0  0  0  0  0  0  0  0  0  0
    8.6963   43.4602  102.1802 N   0  0  0  0  0  0  0  0  0  0  0  0
    6.8610   43.1238  104.8022 N   0  0  0  0  0  0  0  0  0  0  0  0
    7.5936   41.6345  106.2075 C   0  0  0  0  0  0  0  0  0  0  0  0
    8.6198   41.9194  105.3408 N   0  0  0  0  0  0  0  0  0  0  0  0
    7.0370   39.7066  107.6539 C   0  0  0  0  0  0  0  0  0  0  0  0
    7.3591   38.7833  108.6358 C   0  0  0  0  0  0  0  0  0  0  0  0
    8.5826   38.8649  109.3014 C   0  0  0  0  0  0  0  0  0  0  0  0
    9.4475   39.9193  109.0081 C   0  0  0  0  0  0  0  0  0  0  0  0
    9.1297   40.8726  108.0447 C   0  0  0  0  0  0  0  0  0  0  0  0
    8.9986   37.9788  110.3358 N   0  0  0  0  0  0  0  0  0  0  0  0
   10.8570   36.7014  110.7744 O   0  0  0  0  0  0  0  0  0  0  0  0
    9.2440   36.0092  109.3467 O   0  0  0  0  0  0  0  0  0  0  0  0
   10.1139   35.5162  108.2901 C   0  0  0  0  0  0  0  0  0  0  0  0
   10.6380   44.3596  107.6339 C   0  0  0  0  0  0  0  0  0  0  0  0
    9.6437   43.3329  108.2056 C   0  0  1  0  0  0  0  0  0  0  0  0
    9.9768   41.9699  107.8099 N   0  0  0  0  0  0  0  0  0  0  0  0
    9.4863   43.5100  109.7101 C   0  0  0  0  0  0  0  0  0  0  0  0
    9.5718   42.6064  110.4894 O   0  0  0  0  0  0  0  0  0  0  0  0
    9.2390   44.7780  110.0476 O   0  0  0  0  0  0  0  0  0  0  0  0
    8.4676   43.8698  112.1492 C   0  0  0  0  0  0  0  0  0  0  0  0
    8.3519   45.0149  111.1914 C   0  0  0  0  0  0  0  0  0  0  0  0
  1 16  1  0
  1 23  2  0
  2  3  1  6
  5  2  1  6
  3  7  1  0
  3 25  1  6
  4 23  1  0
  4 24  2  0
  4 25  1  0
  6  5  1  6
  6 38  1  0
  7 26  1  0
  7 28  2  0
  8 26  1  0
  8 27  2  0
  9 34  1  0
  9 35  2  0
  9 36  1  0
 10 27  1  0
 10 29  1  0
 10 33  2  0
 11 14  1  0
 12 13  2  0
 12 17  1  0
 13 14  1  0
 14 15  2  0
 15 16  1  0
 16 17  2  0
 17 18  1  0
 18 19  1  0
 18 22  1  0
 19 20  2  0
 20 21  1  0
 21 22  2  0
 27 28  1  0
 29 30  2  0
 30 31  1  0
 31 32  2  0
 31 34  1  0
 32 33  1  0
 33 40  1  0
 37 36  1  6
 38 39  1  1
 39 40  1  0
 39 41  1  1
 41 42  2  0
 41 43  1  0
 45 43  1  6
 44 45  1  6
M  END
$$$$
