
     RDKit          3D

 45 49  0  0  0  0  0  0  0  0999 V2000
    6.2298  -21.6364   66.3311 C   0  0  0  0  0  0  0  0  0  0  0  0
    6.6736  -19.8583   65.1194 C   0  0  0  0  0  0  0  0  0  0  0  0
    8.1898  -20.0918   65.1990 C   0  0  1  0  0  0  0  0  0  0  0  0
    7.9610  -22.4317   64.6526 C   0  0  0  0  0  0  0  0  0  0  0  0
    6.2019  -18.5939   65.9026 C   0  0  0  0  0  0  0  0  0  0  0  0
    6.9448  -17.2630   65.6128 C   0  0  0  0  0  0  0  0  0  0  0  0
    8.6380  -20.0134   66.6294 C   0  0  0  0  0  0  0  0  0  0  0  0
    8.5747  -20.2619   68.7986 C   0  0  0  0  0  0  0  0  0  0  0  0
   12.2207  -14.8774   72.6260 C   0  0  0  0  0  0  0  0  0  0  0  0
    9.9935  -18.1233   69.2492 C   0  0  0  0  0  0  0  0  0  0  0  0
    4.3609  -16.8733   65.7146 Cl  0  0  0  0  0  0  0  0  0  0  0  0
    4.1988  -20.1752   63.4826 C   0  0  0  0  0  0  0  0  0  0  0  0
    4.0395  -18.8709   63.9289 C   0  0  0  0  0  0  0  0  0  0  0  0
    4.5836  -18.5019   65.1427 C   0  0  0  0  0  0  0  0  0  0  0  0
    5.2821  -19.4016   65.9235 C   0  0  0  0  0  0  0  0  0  0  0  0
    5.4435  -20.7261   65.4859 C   0  0  0  0  0  0  0  0  0  0  0  0
    4.8909  -21.1056   64.2513 C   0  0  0  0  0  0  0  0  0  0  0  0
    4.9902  -22.4528   63.7845 N   0  0  0  0  0  0  0  0  0  0  0  0
    4.5056  -23.6057   64.2642 C   0  0  0  0  0  0  0  0  0  0  0  0
    4.9037  -24.5961   63.5140 N   0  0  0  0  0  0  0  0  0  0  0  0
    5.6602  -24.0318   62.5363 N   0  0  0  0  0  0  0  0  0  0  0  0
    5.7239  -22.7448   62.6843 N   0  0  0  0  0  0  0  0  0  0  0  0
    7.1079  -22.5141   65.8584 C   0  0  0  0  0  0  0  0  0  0  0  0
    8.0944  -23.3861   63.8786 O   0  0  0  0  0  0  0  0  0  0  0  0
    8.6435  -21.2797   64.4806 N   0  0  0  0  0  0  0  0  0  0  0  0
    8.1332  -20.7775   67.6180 N   0  0  0  0  0  0  0  0  0  0  0  0
    9.3491  -19.1866   68.4667 C   0  0  0  0  0  0  0  0  0  0  0  0
    9.4053  -19.0605   67.1006 N   0  0  0  0  0  0  0  0  0  0  0  0
   10.8092  -18.4708   70.3307 C   0  0  0  0  0  0  0  0  0  0  0  0
   11.5205  -17.5035   71.0228 C   0  0  0  0  0  0  0  0  0  0  0  0
   11.4523  -16.1667   70.6296 C   0  0  0  0  0  0  0  0  0  0  0  0
   10.6149  -15.8106   69.5723 C   0  0  0  0  0  0  0  0  0  0  0  0
    9.8709  -16.7637   68.8824 C   0  0  0  0  0  0  0  0  0  0  0  0
   12.1281  -15.0979   71.2845 N   0  0  0  0  0  0  0  0  0  0  0  0
   13.2184  -14.5439   73.2294 O   0  0  0  0  0  0  0  0  0  0  0  0
   11.0257  -15.1018   73.2088 O   0  0  0  0  0  0  0  0  0  0  0  0
   10.1702  -13.9385   73.3844 C   0  0  0  0  0  0  0  0  0  0  0  0
    6.7972  -16.1771   66.6891 C   0  0  0  0  0  0  0  0  0  0  0  0
    7.5278  -16.4367   68.0190 C   0  0  1  0  0  0  0  0  0  0  0  0
    8.9766  -16.3829   67.8666 N   0  0  0  0  0  0  0  0  0  0  0  0
    6.9957  -15.5251   69.1170 C   0  0  0  0  0  0  0  0  0  0  0  0
    6.2323  -14.6273   68.9114 O   0  0  0  0  0  0  0  0  0  0  0  0
    7.4829  -15.8424   70.3190 O   0  0  0  0  0  0  0  0  0  0  0  0
    7.7398  -17.3889   72.1571 C   0  0  0  0  0  0  0  0  0  0  0  0
    7.5247  -17.2632   70.6806 C   0  0  0  0  0  0  0  0  0  0  0  0
  1 16  1  0
  1 23  2  0
  2  3  1  6
  5  2  1  6
  3  7  1  0
  3 25  1  1
  4 23  1  0
  4 24  2  0
  4 25  1  0
  6  5  1  6
  6 38  1  0
  7 26  1  0
  7 28  2  0
  8 26  1  0
  8 27  2  0
  9 34  1  0
  9 35  2  0
  9 36  1  0
 10 27  1  0
 10 29  1  0
 10 33  2  0
 11 14  1  0
 12 13  2  0
 12 17  1  0
 13 14  1  0
 14 15  2  0
 15 16  1  0
 16 17  2  0
 17 18  1  0
 18 19  1  0
 18 22  1  0
 19 20  2  0
 20 21  1  0
 21 22  2  0
 27 28  1  0
 29 30  2  0
 30 31  1  0
 31 32  2  0
 31 34  1  0
 32 33  1  0
 33 40  1  0
 37 36  1  6
 38 39  1  1
 39 40  1  0
 39 41  1  1
 41 42  2  0
 41 43  1  0
 45 43  1  6
 44 45  1  6
M  END
$$$$
