
     RDKit          3D

 45 49  0  0  0  0  0  0  0  0999 V2000
   51.9418   41.2955   24.5802 C   0  0  0  0  0  0  0  0  0  0  0  0
   54.3963   42.8358   23.2523 C   0  0  0  0  0  0  0  0  0  0  0  0
   53.3497   43.1410   22.1701 C   0  0  1  0  0  0  0  0  0  0  0  0
   51.6322   43.6841   23.7767 C   0  0  0  0  0  0  0  0  0  0  0  0
   55.5444   41.9035   22.7550 C   0  0  0  0  0  0  0  0  0  0  0  0
   56.2637   42.3050   21.4402 C   0  0  0  0  0  0  0  0  0  0  0  0
   52.9078   41.8621   21.5206 C   0  0  0  0  0  0  0  0  0  0  0  0
   52.3524   39.7573   21.3395 C   0  0  0  0  0  0  0  0  0  0  0  0
   55.1394   38.4113   14.2793 C   0  0  0  0  0  0  0  0  0  0  0  0
   53.2188   39.5702   18.8893 C   0  0  0  0  0  0  0  0  0  0  0  0
   53.4125   36.7022   22.7639 Cl  0  0  0  0  0  0  0  0  0  0  0  0
   51.7138   39.8877   21.0673 C   0  0  0  0  0  0  0  0  0  0  0  0
   52.2623   38.6282   21.2637 C   0  0  0  0  0  0  0  0  0  0  0  0
   52.7003   38.2720   22.5234 C   0  0  0  0  0  0  0  0  0  0  0  0
   52.6060   39.1410   23.5925 C   0  0  0  0  0  0  0  0  0  0  0  0
   52.0597   40.4209   23.4044 C   0  0  0  0  0  0  0  0  0  0  0  0
   51.6131   40.7873   22.1239 C   0  0  0  0  0  0  0  0  0  0  0  0
   51.0912   42.0940   21.8732 N   0  0  0  0  0  0  0  0  0  0  0  0
   51.4893   43.3096   22.2707 C   0  0  0  0  0  0  0  0  0  0  0  0
   50.6587   44.2117   21.8251 N   0  0  0  0  0  0  0  0  0  0  0  0
   49.7155   43.5262   21.1273 N   0  0  0  0  0  0  0  0  0  0  0  0
   49.9591   42.2524   21.1470 N   0  0  0  0  0  0  0  0  0  0  0  0
   52.2336   42.5915   24.5723 C   0  0  0  0  0  0  0  0  0  0  0  0
   50.5762   44.2327   24.1111 O   0  0  0  0  0  0  0  0  0  0  0  0
   52.2621   44.0026   22.6259 N   0  0  0  0  0  0  0  0  0  0  0  0
   52.3909   40.8161   22.1951 N   0  0  0  0  0  0  0  0  0  0  0  0
   52.8542   40.2189   20.1558 C   0  0  0  0  0  0  0  0  0  0  0  0
   53.1701   41.5499   20.2745 N   0  0  0  0  0  0  0  0  0  0  0  0
   52.2894   38.7387   18.2562 C   0  0  0  0  0  0  0  0  0  0  0  0
   52.5550   38.1983   17.0080 C   0  0  0  0  0  0  0  0  0  0  0  0
   53.7485   38.5008   16.3519 C   0  0  0  0  0  0  0  0  0  0  0  0
   54.6926   39.3031   16.9930 C   0  0  0  0  0  0  0  0  0  0  0  0
   54.4562   39.8327   18.2585 C   0  0  0  0  0  0  0  0  0  0  0  0
   54.1229   37.9830   15.0793 N   0  0  0  0  0  0  0  0  0  0  0  0
   55.0435   38.7462   13.1177 O   0  0  0  0  0  0  0  0  0  0  0  0
   56.2988   38.3964   14.9674 O   0  0  0  0  0  0  0  0  0  0  0  0
   57.2210   39.4872   14.6923 C   0  0  0  0  0  0  0  0  0  0  0  0
   57.0342   41.1764   20.7386 C   0  0  0  0  0  0  0  0  0  0  0  0
   56.1790   40.0796   20.0789 C   0  0  1  0  0  0  0  0  0  0  0  0
   55.4446   40.5798   18.9232 N   0  0  0  0  0  0  0  0  0  0  0  0
   57.0179   38.8439   19.7804 C   0  0  0  0  0  0  0  0  0  0  0  0
   57.2943   38.4911   18.6713 O   0  0  0  0  0  0  0  0  0  0  0  0
   57.3969   38.2085   20.8920 O   0  0  0  0  0  0  0  0  0  0  0  0
   58.3207   36.0238   21.3501 C   0  0  0  0  0  0  0  0  0  0  0  0
   57.0773   36.7812   21.0000 C   0  0  0  0  0  0  0  0  0  0  0  0
  1 16  1  0
  1 23  2  0
  2  3  1  6
  5  2  1  6
  3  7  1  0
  3 25  1  1
  4 23  1  0
  4 24  2  0
  4 25  1  0
  6  5  1  6
  6 38  1  0
  7 26  1  0
  7 28  2  0
  8 26  1  0
  8 27  2  0
  9 34  1  0
  9 35  2  0
  9 36  1  0
 10 27  1  0
 10 29  1  0
 10 33  2  0
 11 14  1  0
 12 13  2  0
 12 17  1  0
 13 14  1  0
 14 15  2  0
 15 16  1  0
 16 17  2  0
 17 18  1  0
 18 19  1  0
 18 22  1  0
 19 20  2  0
 20 21  1  0
 21 22  2  0
 27 28  1  0
 29 30  2  0
 30 31  1  0
 31 32  2  0
 31 34  1  0
 32 33  1  0
 33 40  1  0
 37 36  1  6
 38 39  1  1
 39 40  1  0
 39 41  1  6
 41 42  2  0
 41 43  1  0
 45 43  1  6
 44 45  1  6
M  END
$$$$
