
     RDKit          3D

 45 49  0  0  0  0  0  0  0  0999 V2000
  -14.5650   32.0927   20.5597 C   0  0  0  0  0  0  0  0  0  0  0  0
  -15.5033   33.4755   20.7197 C   0  0  0  0  0  0  0  0  0  0  0  0
  -15.2601   34.4247   21.9027 C   0  0  1  0  0  0  0  0  0  0  0  0
  -13.1240   33.3495   22.2304 C   0  0  0  0  0  0  0  0  0  0  0  0
  -16.9943   33.4291   20.2621 C   0  0  0  0  0  0  0  0  0  0  0  0
  -17.6933   34.7866   19.9866 C   0  0  0  0  0  0  0  0  0  0  0  0
  -16.2602   34.1465   22.9868 C   0  0  0  0  0  0  0  0  0  0  0  0
  -17.5750   32.9938   24.2960 C   0  0  0  0  0  0  0  0  0  0  0  0
  -23.3352   37.1709   26.9509 C   0  0  0  0  0  0  0  0  0  0  0  0
  -19.3079   34.9256   24.5288 C   0  0  0  0  0  0  0  0  0  0  0  0
  -16.0900   30.6279   25.2595 Cl  0  0  0  0  0  0  0  0  0  0  0  0
  -17.8289   30.5164   21.6714 C   0  0  0  0  0  0  0  0  0  0  0  0
  -17.5979   30.3911   23.0340 C   0  0  0  0  0  0  0  0  0  0  0  0
  -16.3899   30.8096   23.5548 C   0  0  0  0  0  0  0  0  0  0  0  0
  -15.4057   31.3493   22.7504 C   0  0  0  0  0  0  0  0  0  0  0  0
  -15.6251   31.4744   21.3690 C   0  0  0  0  0  0  0  0  0  0  0  0
  -16.8530   31.0492   20.8351 C   0  0  0  0  0  0  0  0  0  0  0  0
  -17.1059   31.1147   19.4300 N   0  0  0  0  0  0  0  0  0  0  0  0
  -16.5112   31.7980   18.4431 C   0  0  0  0  0  0  0  0  0  0  0  0
  -17.1310   31.5732   17.3173 N   0  0  0  0  0  0  0  0  0  0  0  0
  -18.1434   30.7197   17.6224 N   0  0  0  0  0  0  0  0  0  0  0  0
  -18.1440   30.4348   18.8877 N   0  0  0  0  0  0  0  0  0  0  0  0
  -13.3999   32.5005   21.0507 C   0  0  0  0  0  0  0  0  0  0  0  0
  -12.3026   33.0229   23.0943 O   0  0  0  0  0  0  0  0  0  0  0  0
  -13.8704   34.4681   22.3497 N   0  0  0  0  0  0  0  0  0  0  0  0
  -16.4299   32.9391   23.5609 N   0  0  0  0  0  0  0  0  0  0  0  0
  -18.0579   34.2615   24.1359 C   0  0  0  0  0  0  0  0  0  0  0  0
  -17.2065   34.9838   23.3366 N   0  0  0  0  0  0  0  0  0  0  0  0
  -19.7298   34.8535   25.8602 C   0  0  0  0  0  0  0  0  0  0  0  0
  -20.8427   35.5577   26.2913 C   0  0  0  0  0  0  0  0  0  0  0  0
  -21.5442   36.3736   25.4032 C   0  0  0  0  0  0  0  0  0  0  0  0
  -21.1471   36.4234   24.0668 C   0  0  0  0  0  0  0  0  0  0  0  0
  -20.0486   35.7016   23.6083 C   0  0  0  0  0  0  0  0  0  0  0  0
  -22.7080   37.1210   25.7422 N   0  0  0  0  0  0  0  0  0  0  0  0
  -24.2579   37.8991   27.2489 O   0  0  0  0  0  0  0  0  0  0  0  0
  -22.7653   36.2895   27.7973 O   0  0  0  0  0  0  0  0  0  0  0  0
  -21.3783   35.9453   27.5254 C   0  0  0  0  0  0  0  0  0  0  0  0
  -19.2290   34.7523   19.9987 C   0  0  0  0  0  0  0  0  0  0  0  0
  -19.8919   34.5514   21.3733 C   0  0  1  0  0  0  0  0  0  0  0  0
  -19.7027   35.7040   22.2456 N   0  0  0  0  0  0  0  0  0  0  0  0
  -21.3493   34.1373   21.2172 C   0  0  0  0  0  0  0  0  0  0  0  0
  -21.6875   33.1006   20.7254 O   0  0  0  0  0  0  0  0  0  0  0  0
  -22.1914   35.0622   21.6845 O   0  0  0  0  0  0  0  0  0  0  0  0
  -22.9778   34.1145   23.7629 C   0  0  0  0  0  0  0  0  0  0  0  0
  -23.3814   34.5950   22.4033 C   0  0  0  0  0  0  0  0  0  0  0  0
  1 16  1  0
  1 23  2  0
  2  3  1  6
  5  2  1  6
  3  7  1  0
  3 25  1  1
  4 23  1  0
  4 24  2  0
  4 25  1  0
  6  5  1  6
  6 38  1  0
  7 26  1  0
  7 28  2  0
  8 26  1  0
  8 27  2  0
  9 34  1  0
  9 35  2  0
  9 36  1  0
 10 27  1  0
 10 29  1  0
 10 33  2  0
 11 14  1  0
 12 13  2  0
 12 17  1  0
 13 14  1  0
 14 15  2  0
 15 16  1  0
 16 17  2  0
 17 18  1  0
 18 19  1  0
 18 22  1  0
 19 20  2  0
 20 21  1  0
 21 22  2  0
 27 28  1  0
 29 30  2  0
 30 31  1  0
 31 32  2  0
 31 34  1  0
 32 33  1  0
 33 40  1  0
 37 36  1  6
 38 39  1  1
 39 40  1  0
 39 41  1  6
 41 42  2  0
 41 43  1  0
 45 43  1  6
 44 45  1  6
M  END
$$$$
