
     RDKit          3D

 45 49  0  0  0  0  0  0  0  0999 V2000
   -6.1677   75.0157    7.7208 C   0  0  0  0  0  0  0  0  0  0  0  0
   -5.2818   78.7951    7.0595 C   0  0  0  0  0  0  0  0  0  0  0  0
   -5.7621   78.2409    5.7099 C   0  0  1  0  0  0  0  0  0  0  0  0
   -5.1211   75.9170    5.5903 C   0  0  0  0  0  0  0  0  0  0  0  0
   -6.1906   79.9340    7.6178 C   0  0  0  0  0  0  0  0  0  0  0  0
   -7.7149   79.6535    7.6882 C   0  0  0  0  0  0  0  0  0  0  0  0
   -6.0294   79.3760    4.7647 C   0  0  0  0  0  0  0  0  0  0  0  0
   -5.7701   81.3081    3.7794 C   0  0  0  0  0  0  0  0  0  0  0  0
  -12.6156   83.0513    0.7665 C   0  0  0  0  0  0  0  0  0  0  0  0
   -8.3178   81.5984    3.3165 C   0  0  0  0  0  0  0  0  0  0  0  0
   -2.5632   71.7080    6.1002 Cl  0  0  0  0  0  0  0  0  0  0  0  0
   -3.5605   73.1040    9.7012 C   0  0  0  0  0  0  0  0  0  0  0  0
   -2.9182   72.4197    8.6790 C   0  0  0  0  0  0  0  0  0  0  0  0
   -3.3516   72.5866    7.3790 C   0  0  0  0  0  0  0  0  0  0  0  0
   -4.4107   73.4183    7.0728 C   0  0  0  0  0  0  0  0  0  0  0  0
   -5.0732   74.1102    8.0996 C   0  0  0  0  0  0  0  0  0  0  0  0
   -4.6354   73.9427    9.4239 C   0  0  0  0  0  0  0  0  0  0  0  0
   -5.3057   74.5904   10.5074 N   0  0  0  0  0  0  0  0  0  0  0  0
   -6.0147   74.1109   11.5378 C   0  0  0  0  0  0  0  0  0  0  0  0
   -6.4798   75.1003   12.2498 N   0  0  0  0  0  0  0  0  0  0  0  0
   -6.0401   76.2299   11.6355 N   0  0  0  0  0  0  0  0  0  0  0  0
   -5.3343   75.9421   10.5861 N   0  0  0  0  0  0  0  0  0  0  0  0
   -6.1856   75.7289    6.6002 C   0  0  0  0  0  0  0  0  0  0  0  0
   -4.4161   74.9797    5.1999 O   0  0  0  0  0  0  0  0  0  0  0  0
   -4.9130   77.1827    5.1693 N   0  0  0  0  0  0  0  0  0  0  0  0
   -5.1152   80.3089    4.4329 N   0  0  0  0  0  0  0  0  0  0  0  0
   -7.0812   80.9269    3.7382 C   0  0  0  0  0  0  0  0  0  0  0  0
   -7.2249   79.6977    4.3331 N   0  0  0  0  0  0  0  0  0  0  0  0
   -8.3742   82.1934    2.0521 C   0  0  0  0  0  0  0  0  0  0  0  0
   -9.5561   82.7386    1.5763 C   0  0  0  0  0  0  0  0  0  0  0  0
  -10.7177   82.6761    2.3464 C   0  0  0  0  0  0  0  0  0  0  0  0
  -10.6591   82.1130    3.6213 C   0  0  0  0  0  0  0  0  0  0  0  0
   -9.4750   81.5850    4.1282 C   0  0  0  0  0  0  0  0  0  0  0  0
  -11.9741   83.2217    1.9566 N   0  0  0  0  0  0  0  0  0  0  0  0
  -12.2522   82.3418   -0.1473 O   0  0  0  0  0  0  0  0  0  0  0  0
  -13.7293   83.8107    0.7358 O   0  0  0  0  0  0  0  0  0  0  0  0
  -13.7855   84.8233   -0.3071 C   0  0  0  0  0  0  0  0  0  0  0  0
   -8.6108   80.8975    7.7865 C   0  0  0  0  0  0  0  0  0  0  0  0
   -8.7057   81.7665    6.5195 C   0  0  1  0  0  0  0  0  0  0  0  0
   -9.4124   81.0860    5.4412 N   0  0  0  0  0  0  0  0  0  0  0  0
   -9.2715   83.1423    6.8466 C   0  0  0  0  0  0  0  0  0  0  0  0
   -8.5929   84.0660    7.1890 O   0  0  0  0  0  0  0  0  0  0  0  0
  -10.5991   83.1889    6.7121 O   0  0  0  0  0  0  0  0  0  0  0  0
  -10.3450   83.4391    4.3228 C   0  0  0  0  0  0  0  0  0  0  0  0
  -11.1374   83.8570    5.5226 C   0  0  0  0  0  0  0  0  0  0  0  0
  1 16  1  0
  1 23  2  0
  2  3  1  6
  5  2  1  6
  3  7  1  0
  3 25  1  6
  4 23  1  0
  4 24  2  0
  4 25  1  0
  6  5  1  6
  6 38  1  0
  7 26  1  0
  7 28  2  0
  8 26  1  0
  8 27  2  0
  9 34  1  0
  9 35  2  0
  9 36  1  0
 10 27  1  0
 10 29  1  0
 10 33  2  0
 11 14  1  0
 12 13  2  0
 12 17  1  0
 13 14  1  0
 14 15  2  0
 15 16  1  0
 16 17  2  0
 17 18  1  0
 18 19  1  0
 18 22  1  0
 19 20  2  0
 20 21  1  0
 21 22  2  0
 27 28  1  0
 29 30  2  0
 30 31  1  0
 31 32  2  0
 31 34  1  0
 32 33  1  0
 33 40  1  0
 37 36  1  6
 38 39  1  1
 39 40  1  0
 39 41  1  1
 41 42  2  0
 41 43  1  0
 45 43  1  6
 44 45  1  6
M  END
$$$$
