
     RDKit          3D

 45 49  0  0  0  0  0  0  0  0999 V2000
  -19.6733  -27.4628   42.8381 C   0  0  0  0  0  0  0  0  0  0  0  0
  -20.0471  -24.7492   39.6875 C   0  0  0  0  0  0  0  0  0  0  0  0
  -19.5843  -26.0687   39.0518 C   0  0  1  0  0  0  0  0  0  0  0  0
  -19.7079  -28.0829   40.3762 C   0  0  0  0  0  0  0  0  0  0  0  0
  -19.2419  -23.5086   39.1902 C   0  0  0  0  0  0  0  0  0  0  0  0
  -19.1043  -23.3220   37.6561 C   0  0  0  0  0  0  0  0  0  0  0  0
  -18.0914  -26.1831   39.1569 C   0  0  0  0  0  0  0  0  0  0  0  0
  -16.0913  -25.9972   40.0149 C   0  0  0  0  0  0  0  0  0  0  0  0
  -11.0408  -26.2223   34.2680 C   0  0  0  0  0  0  0  0  0  0  0  0
  -14.9390  -25.7522   37.6908 C   0  0  0  0  0  0  0  0  0  0  0  0
  -23.0572  -26.8710   46.6798 Cl  0  0  0  0  0  0  0  0  0  0  0  0
  -20.9527  -24.2939   44.4797 C   0  0  0  0  0  0  0  0  0  0  0  0
  -21.8109  -24.8300   45.4294 C   0  0  0  0  0  0  0  0  0  0  0  0
  -21.9607  -26.2000   45.5065 C   0  0  0  0  0  0  0  0  0  0  0  0
  -21.2767  -27.0494   44.6594 C   0  0  0  0  0  0  0  0  0  0  0  0
  -20.4111  -26.5183   43.6894 C   0  0  0  0  0  0  0  0  0  0  0  0
  -20.2563  -25.1244   43.6075 C   0  0  0  0  0  0  0  0  0  0  0  0
  -19.4216  -24.5349   42.6083 N   0  0  0  0  0  0  0  0  0  0  0  0
  -18.1798  -24.0351   42.6583 C   0  0  0  0  0  0  0  0  0  0  0  0
  -17.8513  -23.5561   41.4901 N   0  0  0  0  0  0  0  0  0  0  0  0
  -18.9300  -23.7697   40.6918 N   0  0  0  0  0  0  0  0  0  0  0  0
  -19.8833  -24.3557   41.3478 N   0  0  0  0  0  0  0  0  0  0  0  0
  -20.1934  -28.0635   41.7735 C   0  0  0  0  0  0  0  0  0  0  0  0
  -18.7515  -28.7826   40.0251 O   0  0  0  0  0  0  0  0  0  0  0  0
  -20.3214  -27.2401   39.5182 N   0  0  0  0  0  0  0  0  0  0  0  0
  -17.4129  -26.1202   40.3196 N   0  0  0  0  0  0  0  0  0  0  0  0
  -16.0241  -25.9957   38.6505 C   0  0  0  0  0  0  0  0  0  0  0  0
  -17.2839  -26.1442   38.1248 N   0  0  0  0  0  0  0  0  0  0  0  0
  -13.7396  -26.4593   37.8230 C   0  0  0  0  0  0  0  0  0  0  0  0
  -12.7362  -26.3385   36.8748 C   0  0  0  0  0  0  0  0  0  0  0  0
  -12.9221  -25.5260   35.7560 C   0  0  0  0  0  0  0  0  0  0  0  0
  -14.1033  -24.7935   35.6361 C   0  0  0  0  0  0  0  0  0  0  0  0
  -15.1115  -24.8799   36.5921 C   0  0  0  0  0  0  0  0  0  0  0  0
  -11.9482  -25.3207   34.7376 N   0  0  0  0  0  0  0  0  0  0  0  0
  -10.2835  -26.0562   33.3356 O   0  0  0  0  0  0  0  0  0  0  0  0
  -11.1126  -27.3595   34.9888 O   0  0  0  0  0  0  0  0  0  0  0  0
  -12.3918  -28.0517   34.9677 C   0  0  0  0  0  0  0  0  0  0  0  0
  -17.9582  -22.4050   37.2033 C   0  0  0  0  0  0  0  0  0  0  0  0
  -16.5338  -22.9591   37.3862 C   0  0  1  0  0  0  0  0  0  0  0  0
  -16.2654  -24.0823   36.4964 N   0  0  0  0  0  0  0  0  0  0  0  0
  -15.5013  -21.8436   37.2888 C   0  0  0  0  0  0  0  0  0  0  0  0
  -14.8456  -21.4738   38.2185 O   0  0  0  0  0  0  0  0  0  0  0  0
  -15.4226  -21.3324   36.0578 O   0  0  0  0  0  0  0  0  0  0  0  0
  -14.9423  -21.5407   33.6994 C   0  0  0  0  0  0  0  0  0  0  0  0
  -15.3653  -22.2738   34.9346 C   0  0  0  0  0  0  0  0  0  0  0  0
  1 16  1  0
  1 23  2  0
  2  3  1  6
  5  2  1  6
  3  7  1  0
  3 25  1  1
  4 23  1  0
  4 24  2  0
  4 25  1  0
  6  5  1  6
  6 38  1  0
  7 26  1  0
  7 28  2  0
  8 26  1  0
  8 27  2  0
  9 34  1  0
  9 35  2  0
  9 36  1  0
 10 27  1  0
 10 29  1  0
 10 33  2  0
 11 14  1  0
 12 13  2  0
 12 17  1  0
 13 14  1  0
 14 15  2  0
 15 16  1  0
 16 17  2  0
 17 18  1  0
 18 19  1  0
 18 22  1  0
 19 20  2  0
 20 21  1  0
 21 22  2  0
 27 28  1  0
 29 30  2  0
 30 31  1  0
 31 32  2  0
 31 34  1  0
 32 33  1  0
 33 40  1  0
 37 36  1  6
 38 39  1  1
 39 40  1  0
 39 41  1  6
 41 42  2  0
 41 43  1  0
 45 43  1  6
 44 45  1  6
M  END
$$$$
