
     RDKit          3D

 45 49  0  0  0  0  0  0  0  0999 V2000
   42.5377  -26.8214  130.9369 C   0  0  0  0  0  0  0  0  0  0  0  0
   43.3407  -24.8661  126.3515 C   0  0  0  0  0  0  0  0  0  0  0  0
   42.8752  -26.3269  126.2572 C   0  0  1  0  0  0  0  0  0  0  0  0
   41.9736  -26.7057  128.4640 C   0  0  0  0  0  0  0  0  0  0  0  0
   43.3285  -24.1246  124.9786 C   0  0  0  0  0  0  0  0  0  0  0  0
   42.0212  -24.1970  124.1461 C   0  0  0  0  0  0  0  0  0  0  0  0
   43.6057  -27.0183  125.1430 C   0  0  0  0  0  0  0  0  0  0  0  0
   45.2534  -27.5496  123.8110 C   0  0  0  0  0  0  0  0  0  0  0  0
   41.6905  -30.3790  117.5922 C   0  0  0  0  0  0  0  0  0  0  0  0
   43.6775  -28.0732  121.8031 C   0  0  0  0  0  0  0  0  0  0  0  0
   42.6024  -31.3962  133.3091 Cl  0  0  0  0  0  0  0  0  0  0  0  0
   45.1703  -29.5490  130.8792 C   0  0  0  0  0  0  0  0  0  0  0  0
   44.5725  -30.4947  131.7001 C   0  0  0  0  0  0  0  0  0  0  0  0
   43.3399  -30.2211  132.2582 C   0  0  0  0  0  0  0  0  0  0  0  0
   42.6887  -29.0271  132.0190 C   0  0  0  0  0  0  0  0  0  0  0  0
   43.2871  -28.0594  131.1960 C   0  0  0  0  0  0  0  0  0  0  0  0
   44.5416  -28.3340  130.6264 C   0  0  0  0  0  0  0  0  0  0  0  0
   45.2106  -27.3631  129.8186 N   0  0  0  0  0  0  0  0  0  0  0  0
   44.9906  -26.0567  129.6206 C   0  0  0  0  0  0  0  0  0  0  0  0
   45.8420  -25.5950  128.7464 N   0  0  0  0  0  0  0  0  0  0  0  0
   46.6147  -26.6559  128.3944 N   0  0  0  0  0  0  0  0  0  0  0  0
   46.2483  -27.7267  129.0280 N   0  0  0  0  0  0  0  0  0  0  0  0
   42.4970  -26.2126  129.7569 C   0  0  0  0  0  0  0  0  0  0  0  0
   40.7643  -26.8680  128.2664 O   0  0  0  0  0  0  0  0  0  0  0  0
   42.8939  -27.0369  127.5334 N   0  0  0  0  0  0  0  0  0  0  0  0
   44.9486  -27.0928  125.0572 N   0  0  0  0  0  0  0  0  0  0  0  0
   44.0554  -27.7411  123.1833 C   0  0  0  0  0  0  0  0  0  0  0  0
   43.0286  -27.4332  124.0414 N   0  0  0  0  0  0  0  0  0  0  0  0
   44.2639  -29.1810  121.1828 C   0  0  0  0  0  0  0  0  0  0  0  0
   43.8525  -29.5901  119.9242 C   0  0  0  0  0  0  0  0  0  0  0  0
   42.8234  -28.9140  119.2682 C   0  0  0  0  0  0  0  0  0  0  0  0
   42.2578  -27.7889  119.8684 C   0  0  0  0  0  0  0  0  0  0  0  0
   42.6765  -27.3457  121.1198 C   0  0  0  0  0  0  0  0  0  0  0  0
   42.3422  -29.2432  117.9689 N   0  0  0  0  0  0  0  0  0  0  0  0
   41.7874  -30.9377  116.5203 O   0  0  0  0  0  0  0  0  0  0  0  0
   40.8905  -30.7993  118.5929 O   0  0  0  0  0  0  0  0  0  0  0  0
   40.9994  -30.0725  119.8483 C   0  0  0  0  0  0  0  0  0  0  0  0
   42.1732  -23.8807  122.6506 C   0  0  0  0  0  0  0  0  0  0  0  0
   42.9130  -24.9342  121.8065 C   0  0  1  0  0  0  0  0  0  0  0  0
   42.1492  -26.1695  121.6812 N   0  0  0  0  0  0  0  0  0  0  0  0
   43.3497  -24.3489  120.4698 C   0  0  0  0  0  0  0  0  0  0  0  0
   44.4900  -24.1071  120.2009 O   0  0  0  0  0  0  0  0  0  0  0  0
   42.3184  -24.1365  119.6488 O   0  0  0  0  0  0  0  0  0  0  0  0
   40.7729  -25.6833  118.6215 C   0  0  0  0  0  0  0  0  0  0  0  0
   41.1016  -24.9248  119.8701 C   0  0  0  0  0  0  0  0  0  0  0  0
  1 16  1  0
  1 23  2  0
  2  3  1  6
  5  2  1  6
  3  7  1  0
  3 25  1  1
  4 23  1  0
  4 24  2  0
  4 25  1  0
  6  5  1  6
  6 38  1  0
  7 26  1  0
  7 28  2  0
  8 26  1  0
  8 27  2  0
  9 34  1  0
  9 35  2  0
  9 36  1  0
 10 27  1  0
 10 29  1  0
 10 33  2  0
 11 14  1  0
 12 13  2  0
 12 17  1  0
 13 14  1  0
 14 15  2  0
 15 16  1  0
 16 17  2  0
 17 18  1  0
 18 19  1  0
 18 22  1  0
 19 20  2  0
 20 21  1  0
 21 22  2  0
 27 28  1  0
 29 30  2  0
 30 31  1  0
 31 32  2  0
 31 34  1  0
 32 33  1  0
 33 40  1  0
 37 36  1  6
 38 39  1  1
 39 40  1  0
 39 41  1  6
 41 42  2  0
 41 43  1  0
 45 43  1  6
 44 45  1  6
M  END
$$$$
