
     RDKit          3D

 45 49  0  0  0  0  0  0  0  0999 V2000
 -173.4947 -738.0268  190.2194 C   0  0  0  0  0  0  0  0  0  0  0  0
 -174.0130 -733.0657  191.7386 C   0  0  0  0  0  0  0  0  0  0  0  0
 -172.7858 -733.6163  190.9968 C   0  0  1  0  0  0  0  0  0  0  0  0
 -173.0514 -735.9393  191.5954 C   0  0  0  0  0  0  0  0  0  0  0  0
 -173.8649 -731.5681  192.1506 C   0  0  0  0  0  0  0  0  0  0  0  0
 -173.4396 -730.5676  191.0435 C   0  0  0  0  0  0  0  0  0  0  0  0
 -171.5397 -733.2766  191.7617 C   0  0  0  0  0  0  0  0  0  0  0  0
 -170.2368 -732.9340  193.4811 C   0  0  0  0  0  0  0  0  0  0  0  0
 -165.3863 -727.2787  192.2839 C   0  0  0  0  0  0  0  0  0  0  0  0
 -168.8046 -731.1417  192.2458 C   0  0  0  0  0  0  0  0  0  0  0  0
 -174.0434 -738.8403  185.1600 Cl  0  0  0  0  0  0  0  0  0  0  0  0
 -170.9061 -738.9821  187.6194 C   0  0  0  0  0  0  0  0  0  0  0  0
 -171.6969 -739.0272  186.4800 C   0  0  0  0  0  0  0  0  0  0  0  0
 -173.0468 -738.7578  186.5846 C   0  0  0  0  0  0  0  0  0  0  0  0
 -173.6283 -738.4454  187.7976 C   0  0  0  0  0  0  0  0  0  0  0  0
 -172.8396 -738.4041  188.9587 C   0  0  0  0  0  0  0  0  0  0  0  0
 -171.4655 -738.6781  188.8564 C   0  0  0  0  0  0  0  0  0  0  0  0
 -170.6304 -738.6924  190.0162 N   0  0  0  0  0  0  0  0  0  0  0  0
 -169.5610 -739.4301  190.3419 C   0  0  0  0  0  0  0  0  0  0  0  0
 -169.1579 -739.1148  191.5418 N   0  0  0  0  0  0  0  0  0  0  0  0
 -170.0098 -738.1463  191.9700 N   0  0  0  0  0  0  0  0  0  0  0  0
 -170.9017 -737.8810  191.0664 N   0  0  0  0  0  0  0  0  0  0  0  0
 -172.8935 -737.3547  191.1951 C   0  0  0  0  0  0  0  0  0  0  0  0
 -173.3632 -735.6155  192.7468 O   0  0  0  0  0  0  0  0  0  0  0  0
 -172.9059 -735.0211  190.6165 N   0  0  0  0  0  0  0  0  0  0  0  0
 -171.3304 -733.6205  193.0479 N   0  0  0  0  0  0  0  0  0  0  0  0
 -169.8185 -732.1913  192.4136 C   0  0  0  0  0  0  0  0  0  0  0  0
 -170.6269 -732.4396  191.3317 N   0  0  0  0  0  0  0  0  0  0  0  0
 -167.4989 -731.3774  192.6881 C   0  0  0  0  0  0  0  0  0  0  0  0
 -166.4913 -730.4566  192.4483 C   0  0  0  0  0  0  0  0  0  0  0  0
 -166.7632 -729.2889  191.7347 C   0  0  0  0  0  0  0  0  0  0  0  0
 -168.0704 -729.0340  191.3198 C   0  0  0  0  0  0  0  0  0  0  0  0
 -169.1017 -729.9333  191.5754 C   0  0  0  0  0  0  0  0  0  0  0  0
 -165.8044 -728.2743  191.4529 N   0  0  0  0  0  0  0  0  0  0  0  0
 -165.7480 -726.1215  192.2532 O   0  0  0  0  0  0  0  0  0  0  0  0
 -164.4802 -727.7634  193.1570 O   0  0  0  0  0  0  0  0  0  0  0  0
 -164.4950 -727.1758  194.4877 C   0  0  0  0  0  0  0  0  0  0  0  0
 -172.8589 -729.2367  191.5447 C   0  0  0  0  0  0  0  0  0  0  0  0
 -171.4624 -729.3058  192.1887 C   0  0  1  0  0  0  0  0  0  0  0  0
 -170.4269 -729.6313  191.2156 N   0  0  0  0  0  0  0  0  0  0  0  0
 -171.1716 -728.0436  192.9898 C   0  0  0  0  0  0  0  0  0  0  0  0
 -171.7319 -727.7713  194.0111 O   0  0  0  0  0  0  0  0  0  0  0  0
 -170.2324 -727.2861  192.4181 O   0  0  0  0  0  0  0  0  0  0  0  0
 -171.2080 -725.6041  193.8517 C   0  0  0  0  0  0  0  0  0  0  0  0
 -170.1811 -725.8694  192.7947 C   0  0  0  0  0  0  0  0  0  0  0  0
  1 16  1  0
  1 23  2  0
  2  3  1  6
  5  2  1  6
  3  7  1  0
  3 25  1  1
  4 23  1  0
  4 24  2  0
  4 25  1  0
  6  5  1  6
  6 38  1  0
  7 26  1  0
  7 28  2  0
  8 26  1  0
  8 27  2  0
  9 34  1  0
  9 35  2  0
  9 36  1  0
 10 27  1  0
 10 29  1  0
 10 33  2  0
 11 14  1  0
 12 13  2  0
 12 17  1  0
 13 14  1  0
 14 15  2  0
 15 16  1  0
 16 17  2  0
 17 18  1  0
 18 19  1  0
 18 22  1  0
 19 20  2  0
 20 21  1  0
 21 22  2  0
 27 28  1  0
 29 30  2  0
 30 31  1  0
 31 32  2  0
 31 34  1  0
 32 33  1  0
 33 40  1  0
 37 36  1  6
 38 39  1  1
 39 40  1  0
 39 41  1  6
 41 42  2  0
 41 43  1  0
 45 43  1  6
 44 45  1  6
M  END
$$$$
