
     RDKit          3D

 45 49  0  0  0  0  0  0  0  0999 V2000
   36.2851   39.6330   61.7801 C   0  0  0  0  0  0  0  0  0  0  0  0
   36.6609   42.3600   59.8747 C   0  0  0  0  0  0  0  0  0  0  0  0
   37.2938   42.0700   61.2439 C   0  0  1  0  0  0  0  0  0  0  0  0
   35.9585   41.6986   63.2201 C   0  0  0  0  0  0  0  0  0  0  0  0
   37.5021   41.8161   58.6783 C   0  0  0  0  0  0  0  0  0  0  0  0
   37.9415   40.3294   58.7392 C   0  0  0  0  0  0  0  0  0  0  0  0
   38.7374   42.4808   61.2297 C   0  0  0  0  0  0  0  0  0  0  0  0
   40.5125   43.6630   60.7580 C   0  0  0  0  0  0  0  0  0  0  0  0
   46.4271   39.1009   59.5829 C   0  0  0  0  0  0  0  0  0  0  0  0
   42.1032   41.6001   60.8184 C   0  0  0  0  0  0  0  0  0  0  0  0
   36.7070   36.9038   57.4289 Cl  0  0  0  0  0  0  0  0  0  0  0  0
   34.8435   40.3109   58.3398 C   0  0  0  0  0  0  0  0  0  0  0  0
   35.3147   39.2054   57.6460 C   0  0  0  0  0  0  0  0  0  0  0  0
   36.0939   38.2765   58.3059 C   0  0  0  0  0  0  0  0  0  0  0  0
   36.4161   38.4230   59.6407 C   0  0  0  0  0  0  0  0  0  0  0  0
   35.9513   39.5414   60.3513 C   0  0  0  0  0  0  0  0  0  0  0  0
   35.1582   40.4891   59.6832 C   0  0  0  0  0  0  0  0  0  0  0  0
   34.6991   41.6660   60.3517 N   0  0  0  0  0  0  0  0  0  0  0  0
   35.1014   42.2728   61.4760 C   0  0  0  0  0  0  0  0  0  0  0  0
   34.3380   43.3030   61.7170 N   0  0  0  0  0  0  0  0  0  0  0  0
   33.4334   43.3316   60.7034 N   0  0  0  0  0  0  0  0  0  0  0  0
   33.6348   42.3543   59.8746 N   0  0  0  0  0  0  0  0  0  0  0  0
   35.6135   40.3770   62.6521 C   0  0  0  0  0  0  0  0  0  0  0  0
   35.6875   42.0004   64.3877 O   0  0  0  0  0  0  0  0  0  0  0  0
   36.5229   42.5850   62.3725 N   0  0  0  0  0  0  0  0  0  0  0  0
   39.1623   43.7229   60.9251 N   0  0  0  0  0  0  0  0  0  0  0  0
   40.8557   42.3592   60.9780 C   0  0  0  0  0  0  0  0  0  0  0  0
   39.7359   41.6343   61.3036 N   0  0  0  0  0  0  0  0  0  0  0  0
   43.2769   42.0853   61.4039 C   0  0  0  0  0  0  0  0  0  0  0  0
   44.4468   41.3432   61.3690 C   0  0  0  0  0  0  0  0  0  0  0  0
   44.4611   40.0836   60.7693 C   0  0  0  0  0  0  0  0  0  0  0  0
   43.3017   39.6093   60.1553 C   0  0  0  0  0  0  0  0  0  0  0  0
   42.1242   40.3519   60.1555 C   0  0  0  0  0  0  0  0  0  0  0  0
   45.6132   39.2531   60.6651 N   0  0  0  0  0  0  0  0  0  0  0  0
   46.9520   38.0691   59.2215 O   0  0  0  0  0  0  0  0  0  0  0  0
   46.5869   40.2869   58.9618 O   0  0  0  0  0  0  0  0  0  0  0  0
   46.8844   41.4239   59.8189 C   0  0  0  0  0  0  0  0  0  0  0  0
   39.1195   39.9518   57.8286 C   0  0  0  0  0  0  0  0  0  0  0  0
   40.4973   40.5023   58.2389 C   0  0  1  0  0  0  0  0  0  0  0  0
   40.9840   39.8948   59.4715 N   0  0  0  0  0  0  0  0  0  0  0  0
   41.4842   40.4105   57.0825 C   0  0  0  0  0  0  0  0  0  0  0  0
   41.6720   41.3028   56.3081 O   0  0  0  0  0  0  0  0  0  0  0  0
   42.1012   39.2273   57.0360 O   0  0  0  0  0  0  0  0  0  0  0  0
   44.0775   40.4378   56.3539 C   0  0  0  0  0  0  0  0  0  0  0  0
   43.3400   39.1384   56.2558 C   0  0  0  0  0  0  0  0  0  0  0  0
  1 16  1  0
  1 23  2  0
  2  3  1  6
  5  2  1  6
  3  7  1  0
  3 25  1  1
  4 23  1  0
  4 24  2  0
  4 25  1  0
  6  5  1  6
  6 38  1  0
  7 26  1  0
  7 28  2  0
  8 26  1  0
  8 27  2  0
  9 34  1  0
  9 35  2  0
  9 36  1  0
 10 27  1  0
 10 29  1  0
 10 33  2  0
 11 14  1  0
 12 13  2  0
 12 17  1  0
 13 14  1  0
 14 15  2  0
 15 16  1  0
 16 17  2  0
 17 18  1  0
 18 19  1  0
 18 22  1  0
 19 20  2  0
 20 21  1  0
 21 22  2  0
 27 28  1  0
 29 30  2  0
 30 31  1  0
 31 32  2  0
 31 34  1  0
 32 33  1  0
 33 40  1  0
 37 36  1  6
 38 39  1  1
 39 40  1  0
 39 41  1  6
 41 42  2  0
 41 43  1  0
 45 43  1  6
 44 45  1  6
M  END
$$$$
