
     RDKit          3D

 46 50  0  0  0  0  0  0  0  0999 V2000
-18338.255912920.3662-12898.6338 C   0  0  2  0  0  0  0  0  0  0  0  0
-18335.402312920.0918-12900.2998 C   0  0  0  0  0  0  0  0  0  0  0  0
-18335.318412919.0117-12899.4248 C   0  0  0  0  0  0  0  0  0  0  0  0
-18335.337912917.7314-12899.9766 C   0  0  0  0  0  0  0  0  0  0  0  0
-18333.882812919.9521-12893.0078 C   0  0  0  0  0  0  0  0  0  0  0  0
-18335.023412918.0674-12892.1416 C   0  0  0  0  0  0  0  0  0  0  0  0
-18337.353512920.8545-12903.0488 C   0  0  0  0  0  0  0  0  0  0  0  0
-18338.380912920.6602-12901.8945 C   0  0  0  0  0  0  0  0  0  0  0  0
-18335.912112921.0244-12902.5654 C   0  0  1  0  0  0  0  0  0  0  0  0
-18328.855512919.2822-12906.1768 C   0  0  0  0  0  0  0  0  0  0  0  0
-18333.992212920.2783-12903.8398 C   0  0  0  0  0  0  0  0  0  0  0  0
-18329.644512918.7246-12905.1670 C   0  0  0  0  0  0  0  0  0  0  0  0
-18328.515612920.5342-12908.5547 Cl  0  0  0  0  0  0  0  0  0  0  0  0
-18336.082012920.2490-12897.3369 C   0  0  0  0  0  0  0  0  0  0  0  0
-18335.312512919.2393-12897.9541 C   0  0  0  0  0  0  0  0  0  0  0  0
-18334.427712918.4873-12897.1641 C   0  0  0  0  0  0  0  0  0  0  0  0
-18334.306612918.7305-12895.8076 C   0  0  0  0  0  0  0  0  0  0  0  0
-18335.021512919.7627-12895.2109 C   0  0  0  0  0  0  0  0  0  0  0  0
-18335.904312920.5117-12895.9844 C   0  0  0  0  0  0  0  0  0  0  0  0
-18337.048812920.9590-12898.0703 N   0  0  0  0  0  0  0  0  0  0  0  0
-18334.955112920.0889-12893.8291 N   0  0  0  0  0  0  0  0  0  0  0  0
-18335.554712919.8652-12901.6582 C   0  0  0  0  0  0  0  0  0  0  0  0
-18334.947312921.2119-12903.6543 N   0  0  0  0  0  0  0  0  0  0  0  0
-18335.576212918.6357-12902.1943 N   0  0  0  0  0  0  0  0  0  0  0  0
-18335.464812917.5928-12901.3477 C   0  0  0  0  0  0  0  0  0  0  0  0
-18332.775412920.3848-12893.2021 O   0  0  0  0  0  0  0  0  0  0  0  0
-18334.236312919.2666-12891.9111 O   0  0  0  0  0  0  0  0  0  0  0  0
-18338.390612921.7695-12900.8223 C   0  0  0  0  0  0  0  0  0  0  0  0
-18339.044912921.3838-12899.4805 C   0  0  0  0  0  0  0  0  0  0  0  0
-18333.880912919.7100-12905.2012 C   0  0  0  0  0  0  0  0  0  0  0  0
-18333.281212919.8945-12902.9238 O   0  0  0  0  0  0  0  0  0  0  0  0
-18333.046912920.0312-12906.1729 C   0  0  0  0  0  0  0  0  0  0  0  0
-18331.617212919.7471-12906.1318 C   0  0  0  0  0  0  0  0  0  0  0  0
-18331.019512918.9248-12905.1611 C   0  0  0  0  0  0  0  0  0  0  0  0
-18329.468812919.9941-12907.1895 C   0  0  0  0  0  0  0  0  0  0  0  0
-18330.820312920.2510-12907.1748 C   0  0  0  0  0  0  0  0  0  0  0  0
-18331.812512918.4023-12904.0898 N   0  0  0  0  0  0  0  0  0  0  0  0
-18332.875012918.8613-12903.4307 C   0  0  0  0  0  0  0  0  0  0  0  0
-18333.363312917.9248-12902.6670 N   0  0  0  0  0  0  0  0  0  0  0  0
-18332.611312916.8242-12902.9092 N   0  0  0  0  0  0  0  0  0  0  0  0
-18331.671912917.0938-12903.7695 N   0  0  0  0  0  0  0  0  0  0  0  0
-18339.187512919.7617-12897.5938 C   0  0  0  0  0  0  0  0  0  0  0  0
-18339.218812920.1094-12896.4473 O   0  0  0  0  0  0  0  0  0  0  0  0
-18339.945312918.7871-12898.0996 O   0  0  0  0  0  0  0  0  0  0  0  0
-18340.162112918.2129-12895.7783 C   0  0  0  0  0  0  0  0  0  0  0  0
-18340.697312917.9492-12897.1562 C   0  0  0  0  0  0  0  0  0  0  0  0
  1 20  1  0
 29  1  1  6
  1 42  1  1
  2  3  1  0
  2 22  2  0
  3  4  2  0
  3 15  1  0
  4 25  1  0
  5 21  1  0
  5 26  2  0
  5 27  1  0
  6 27  1  6
  8  7  1  6
  7  9  1  1
 28  8  1  6
  9 22  1  0
  9 23  1  6
 10 12  2  0
 10 35  1  0
 11 23  1  0
 11 30  1  0
 11 31  2  0
 12 34  1  0
 13 35  1  0
 14 15  2  0
 14 19  1  0
 14 20  1  0
 15 16  1  0
 16 17  2  0
 17 18  1  0
 18 19  2  0
 18 21  1  0
 22 24  1  0
 24 25  2  0
 28 29  1  0
 30 32  2  0
 32 33  1  0
 33 34  2  0
 33 36  1  0
 34 37  1  0
 35 36  2  0
 37 38  1  0
 37 41  1  0
 38 39  2  0
 39 40  1  0
 40 41  2  0
 42 43  2  0
 42 44  1  0
 46 44  1  6
 45 46  1  6
M  END
$$$$
