
     RDKit          3D

 46 50  0  0  0  0  0  0  0  0999 V2000
-12768.162135627.0000-57182.1914 C   0  0  2  0  0  0  0  0  0  0  0  0
-12766.102535629.5898-57182.3438 C   0  0  0  0  0  0  0  0  0  0  0  0
-12765.219735628.5586-57182.0352 C   0  0  0  0  0  0  0  0  0  0  0  0
-12764.268635628.2188-57183.0000 C   0  0  0  0  0  0  0  0  0  0  0  0
-12765.961935624.6602-57176.7422 C   0  0  0  0  0  0  0  0  0  0  0  0
-12767.993235625.6680-57176.0859 C   0  0  0  0  0  0  0  0  0  0  0  0
-12767.978535630.4453-57185.1172 C   0  0  0  0  0  0  0  0  0  0  0  0
-12768.497135629.0273-57184.7344 C   0  0  0  0  0  0  0  0  0  0  0  0
-12767.160235631.1289-57184.0156 C   0  0  1  0  0  0  0  0  0  0  0  0
-12773.838935631.8516-57184.9180 C   0  0  0  0  0  0  0  0  0  0  0  0
-12767.556635633.4922-57184.3398 C   0  0  0  0  0  0  0  0  0  0  0  0
-12772.988335631.4922-57183.8789 C   0  0  0  0  0  0  0  0  0  0  0  0
-12774.603535633.4414-57186.9766 Cl  0  0  0  0  0  0  0  0  0  0  0  0
-12766.634835627.4805-57180.2227 C   0  0  0  0  0  0  0  0  0  0  0  0
-12765.376035627.7930-57180.7695 C   0  0  0  0  0  0  0  0  0  0  0  0
-12764.220735627.4688-57180.0508 C   0  0  0  0  0  0  0  0  0  0  0  0
-12764.309635626.8555-57178.8086 C   0  0  0  0  0  0  0  0  0  0  0  0
-12765.554735626.5977-57178.2344 C   0  0  0  0  0  0  0  0  0  0  0  0
-12766.705135626.9102-57178.9609 C   0  0  0  0  0  0  0  0  0  0  0  0
-12767.812535627.6992-57180.9570 N   0  0  0  0  0  0  0  0  0  0  0  0
-12765.742235625.9727-57176.9805 N   0  0  0  0  0  0  0  0  0  0  0  0
-12766.041035630.1953-57183.5938 C   0  0  0  0  0  0  0  0  0  0  0  0
-12766.683635632.4648-57184.3828 N   0  0  0  0  0  0  0  0  0  0  0  0
-12765.130935629.8750-57184.5234 N   0  0  0  0  0  0  0  0  0  0  0  0
-12764.258835628.8906-57184.2148 C   0  0  0  0  0  0  0  0  0  0  0  0
-12765.141635623.7656-57176.8203 O   0  0  0  0  0  0  0  0  0  0  0  0
-12767.236335624.4531-57176.3672 O   0  0  0  0  0  0  0  0  0  0  0  0
-12769.333035628.9570-57183.4414 C   0  0  0  0  0  0  0  0  0  0  0  0
-12769.449235627.5547-57182.8125 C   0  0  0  0  0  0  0  0  0  0  0  0
-12768.906235633.2148-57184.8945 C   0  0  0  0  0  0  0  0  0  0  0  0
-12767.243235634.5977-57183.9141 O   0  0  0  0  0  0  0  0  0  0  0  0
-12770.055735633.7969-57184.6016 C   0  0  0  0  0  0  0  0  0  0  0  0
-12771.348635633.1016-57184.6641 C   0  0  0  0  0  0  0  0  0  0  0  0
-12771.756835632.1641-57183.7227 C   0  0  0  0  0  0  0  0  0  0  0  0
-12773.470735632.8672-57185.7773 C   0  0  0  0  0  0  0  0  0  0  0  0
-12772.234435633.4883-57185.6719 C   0  0  0  0  0  0  0  0  0  0  0  0
-12770.863335631.7422-57182.6953 N   0  0  0  0  0  0  0  0  0  0  0  0
-12769.665035632.1758-57182.2930 C   0  0  0  0  0  0  0  0  0  0  0  0
-12769.347735631.5938-57181.1562 N   0  0  0  0  0  0  0  0  0  0  0  0
-12770.414135630.8477-57180.8086 N   0  0  0  0  0  0  0  0  0  0  0  0
-12771.339835630.9219-57181.7344 N   0  0  0  0  0  0  0  0  0  0  0  0
-12768.298835625.4844-57182.0234 C   0  0  0  0  0  0  0  0  0  0  0  0
-12769.313535624.8867-57182.2422 O   0  0  0  0  0  0  0  0  0  0  0  0
-12767.177735624.9219-57181.5703 O   0  0  0  0  0  0  0  0  0  0  0  0
-12768.688535624.0234-57179.9414 C   0  0  0  0  0  0  0  0  0  0  0  0
-12767.246135624.1602-57180.3281 C   0  0  0  0  0  0  0  0  0  0  0  0
  1 20  1  0
 29  1  1  6
  1 42  1  1
  2  3  1  0
  2 22  2  0
  3  4  2  0
  3 15  1  0
  4 25  1  0
  5 21  1  0
  5 26  2  0
  5 27  1  0
  6 27  1  6
  8  7  1  6
  7  9  1  1
 28  8  1  6
  9 22  1  0
  9 23  1  6
 10 12  2  0
 10 35  1  0
 11 23  1  0
 11 30  1  0
 11 31  2  0
 12 34  1  0
 13 35  1  0
 14 15  2  0
 14 19  1  0
 14 20  1  0
 15 16  1  0
 16 17  2  0
 17 18  1  0
 18 19  2  0
 18 21  1  0
 22 24  1  0
 24 25  2  0
 28 29  1  0
 30 32  2  0
 32 33  1  0
 33 34  2  0
 33 36  1  0
 34 37  1  0
 35 36  2  0
 37 38  1  0
 37 41  1  0
 38 39  2  0
 39 40  1  0
 40 41  2  0
 42 43  2  0
 42 44  1  0
 46 44  1  6
 45 46  1  6
M  END
$$$$
