
     RDKit          3D

 46 50  0  0  0  0  0  0  0  0999 V2000
  -39.1315  -68.3320   28.0934 C   0  0  2  0  0  0  0  0  0  0  0  0
  -41.2156  -70.8575   28.6390 C   0  0  0  0  0  0  0  0  0  0  0  0
  -42.0972  -69.8461   28.2710 C   0  0  0  0  0  0  0  0  0  0  0  0
  -42.8019  -70.0065   27.0777 C   0  0  0  0  0  0  0  0  0  0  0  0
  -43.2156  -64.1230   31.4730 C   0  0  0  0  0  0  0  0  0  0  0  0
  -41.8312  -64.3885   29.5735 C   0  0  0  0  0  0  0  0  0  0  0  0
  -38.8150  -72.7164   26.9887 C   0  0  0  0  0  0  0  0  0  0  0  0
  -38.3342  -71.2446   26.8194 C   0  0  0  0  0  0  0  0  0  0  0  0
  -39.8821  -72.8989   28.0722 C   0  0  1  0  0  0  0  0  0  0  0  0
  -43.5158  -76.8028   31.3834 C   0  0  0  0  0  0  0  0  0  0  0  0
  -41.1121  -74.8241   27.2786 C   0  0  0  0  0  0  0  0  0  0  0  0
  -43.2009  -78.0873   30.9486 C   0  0  0  0  0  0  0  0  0  0  0  0
  -43.3366  -74.1020   31.2580 Cl  0  0  0  0  0  0  0  0  0  0  0  0
  -41.0715  -68.0098   29.7005 C   0  0  0  0  0  0  0  0  0  0  0  0
  -42.1936  -68.6038   29.0844 C   0  0  0  0  0  0  0  0  0  0  0  0
  -43.4632  -68.0636   29.3336 C   0  0  0  0  0  0  0  0  0  0  0  0
  -43.6229  -66.9748   30.1706 C   0  0  0  0  0  0  0  0  0  0  0  0
  -42.5228  -66.4227   30.8215 C   0  0  0  0  0  0  0  0  0  0  0  0
  -41.2553  -66.9464   30.5778 C   0  0  0  0  0  0  0  0  0  0  0  0
  -39.7710  -68.4567   29.4044 N   0  0  0  0  0  0  0  0  0  0  0  0
  -42.5881  -65.3078   31.6985 N   0  0  0  0  0  0  0  0  0  0  0  0
  -41.0248  -71.9432   27.7994 C   0  0  0  0  0  0  0  0  0  0  0  0
  -40.3227  -74.2860   28.2299 N   0  0  0  0  0  0  0  0  0  0  0  0
  -41.6978  -72.1023   26.6481 N   0  0  0  0  0  0  0  0  0  0  0  0
  -42.5743  -71.1345   26.3100 C   0  0  0  0  0  0  0  0  0  0  0  0
  -44.0635  -63.6196   32.1709 O   0  0  0  0  0  0  0  0  0  0  0  0
  -42.7445  -63.5660   30.3471 O   0  0  0  0  0  0  0  0  0  0  0  0
  -37.8000  -70.5683   28.0992 C   0  0  0  0  0  0  0  0  0  0  0  0
  -37.7625  -69.0312   28.0674 C   0  0  0  0  0  0  0  0  0  0  0  0
  -40.9511  -76.2725   27.0320 C   0  0  0  0  0  0  0  0  0  0  0  0
  -41.8974  -74.1459   26.6294 O   0  0  0  0  0  0  0  0  0  0  0  0
  -41.5053  -77.2920   27.6540 C   0  0  0  0  0  0  0  0  0  0  0  0
  -42.1973  -77.1723   28.9444 C   0  0  0  0  0  0  0  0  0  0  0  0
  -42.5105  -78.2764   29.7512 C   0  0  0  0  0  0  0  0  0  0  0  0
  -43.1080  -75.7169   30.6324 C   0  0  0  0  0  0  0  0  0  0  0  0
  -42.4725  -75.8810   29.4187 C   0  0  0  0  0  0  0  0  0  0  0  0
  -42.2438  -79.5998   29.2799 N   0  0  0  0  0  0  0  0  0  0  0  0
  -41.1371  -80.3443   29.1995 C   0  0  0  0  0  0  0  0  0  0  0  0
  -41.4465  -81.5712   28.8877 N   0  0  0  0  0  0  0  0  0  0  0  0
  -42.8000  -81.6023   28.8379 N   0  0  0  0  0  0  0  0  0  0  0  0
  -43.2982  -80.4280   29.0760 N   0  0  0  0  0  0  0  0  0  0  0  0
  -38.9703  -66.8925   27.6224 C   0  0  0  0  0  0  0  0  0  0  0  0
  -39.4553  -66.4683   26.6112 O   0  0  0  0  0  0  0  0  0  0  0  0
  -38.2111  -66.1760   28.4485 O   0  0  0  0  0  0  0  0  0  0  0  0
  -37.4002  -64.5175   26.9138 C   0  0  0  0  0  0  0  0  0  0  0  0
  -36.9922  -65.5731   27.9007 C   0  0  0  0  0  0  0  0  0  0  0  0
  1 20  1  0
 29  1  1  6
  1 42  1  1
  2  3  1  0
  2 22  2  0
  3  4  2  0
  3 15  1  0
  4 25  1  0
  5 21  1  0
  5 26  2  0
  5 27  1  0
  6 27  1  6
  8  7  1  6
  7  9  1  1
 28  8  1  6
  9 22  1  0
  9 23  1  6
 10 12  2  0
 10 35  1  0
 11 23  1  0
 11 30  1  0
 11 31  2  0
 12 34  1  0
 13 35  1  0
 14 15  2  0
 14 19  1  0
 14 20  1  0
 15 16  1  0
 16 17  2  0
 17 18  1  0
 18 19  2  0
 18 21  1  0
 22 24  1  0
 24 25  2  0
 28 29  1  0
 30 32  2  0
 32 33  1  0
 33 34  2  0
 33 36  1  0
 34 37  1  0
 35 36  2  0
 37 38  1  0
 37 41  1  0
 38 39  2  0
 39 40  1  0
 40 41  2  0
 42 43  2  0
 42 44  1  0
 46 44  1  6
 45 46  1  6
M  END
$$$$
