
     RDKit          3D

 46 50  0  0  0  0  0  0  0  0999 V2000
  -72.0319 -133.1694 -154.5232 C   0  0  2  0  0  0  0  0  0  0  0  0
  -70.5253 -131.6500 -151.9854 C   0  0  0  0  0  0  0  0  0  0  0  0
  -69.6733 -131.3375 -153.0398 C   0  0  0  0  0  0  0  0  0  0  0  0
  -69.5773 -129.9978 -153.4170 C   0  0  0  0  0  0  0  0  0  0  0  0
  -66.5714 -136.8051 -155.0062 C   0  0  0  0  0  0  0  0  0  0  0  0
  -68.8363 -136.5459 -154.3750 C   0  0  0  0  0  0  0  0  0  0  0  0
  -73.7391 -130.7404 -151.0984 C   0  0  0  0  0  0  0  0  0  0  0  0
  -73.9072 -131.4010 -152.4989 C   0  0  0  0  0  0  0  0  0  0  0  0
  -72.3902 -131.0318 -150.4338 C   0  0  1  0  0  0  0  0  0  0  0  0
  -66.8818 -127.5902 -145.3817 C   0  0  0  0  0  0  0  0  0  0  0  0
  -71.2555 -129.5150 -148.9302 C   0  0  0  0  0  0  0  0  0  0  0  0
  -67.8096 -127.0958 -146.2943 C   0  0  0  0  0  0  0  0  0  0  0  0
  -65.7782 -129.5694 -143.8961 Cl  0  0  0  0  0  0  0  0  0  0  0  0
  -69.5840 -133.6644 -154.0621 C   0  0  0  0  0  0  0  0  0  0  0  0
  -68.9776 -132.4201 -153.7868 C   0  0  0  0  0  0  0  0  0  0  0  0
  -67.6330 -132.2341 -154.1378 C   0  0  0  0  0  0  0  0  0  0  0  0
  -66.9056 -133.2465 -154.7359 C   0  0  0  0  0  0  0  0  0  0  0  0
  -67.4875 -134.4918 -154.9578 C   0  0  0  0  0  0  0  0  0  0  0  0
  -68.8244 -134.6876 -154.6190 C   0  0  0  0  0  0  0  0  0  0  0  0
  -70.9545 -133.8638 -153.8159 N   0  0  0  0  0  0  0  0  0  0  0  0
  -66.8214 -135.5903 -155.5629 N   0  0  0  0  0  0  0  0  0  0  0  0
  -71.2806 -130.6513 -151.3917 C   0  0  0  0  0  0  0  0  0  0  0  0
  -72.2435 -130.4136 -149.1150 N   0  0  0  0  0  0  0  0  0  0  0  0
  -71.1950 -129.3602 -151.7518 N   0  0  0  0  0  0  0  0  0  0  0  0
  -70.3448 -129.0571 -152.7540 C   0  0  0  0  0  0  0  0  0  0  0  0
  -65.4825 -137.2778 -154.7826 O   0  0  0  0  0  0  0  0  0  0  0  0
  -67.7285 -137.4200 -154.7180 O   0  0  0  0  0  0  0  0  0  0  0  0
  -73.7024 -132.9296 -152.5419 C   0  0  0  0  0  0  0  0  0  0  0  0
  -73.4077 -133.5176 -153.9320 C   0  0  0  0  0  0  0  0  0  0  0  0
  -69.8980 -130.0628 -148.7258 C   0  0  0  0  0  0  0  0  0  0  0  0
  -71.4730 -128.3110 -148.8999 O   0  0  0  0  0  0  0  0  0  0  0  0
  -69.2696 -130.3392 -147.6022 C   0  0  0  0  0  0  0  0  0  0  0  0
  -68.4700 -129.3552 -146.8602 C   0  0  0  0  0  0  0  0  0  0  0  0
  -68.6307 -127.9693 -147.0077 C   0  0  0  0  0  0  0  0  0  0  0  0
  -66.8066 -128.9532 -145.1666 C   0  0  0  0  0  0  0  0  0  0  0  0
  -67.5696 -129.8390 -145.8993 C   0  0  0  0  0  0  0  0  0  0  0  0
  -69.5384 -127.4592 -147.9876 N   0  0  0  0  0  0  0  0  0  0  0  0
  -69.3942 -127.0392 -149.2479 C   0  0  0  0  0  0  0  0  0  0  0  0
  -70.5632 -126.8638 -149.7962 N   0  0  0  0  0  0  0  0  0  0  0  0
  -71.4640 -127.2527 -148.8621 N   0  0  0  0  0  0  0  0  0  0  0  0
  -70.8674 -127.6190 -147.7693 N   0  0  0  0  0  0  0  0  0  0  0  0
  -72.0490 -133.4283 -156.0241 C   0  0  0  0  0  0  0  0  0  0  0  0
  -71.1107 -133.8615 -156.6321 O   0  0  0  0  0  0  0  0  0  0  0  0
  -73.2123 -133.0938 -156.5781 O   0  0  0  0  0  0  0  0  0  0  0  0
  -74.0546 -134.3676 -154.7258 C   0  0  0  0  0  0  0  0  0  0  0  0
  -74.4372 -133.4657 -155.8637 C   0  0  0  0  0  0  0  0  0  0  0  0
  1 20  1  0
 29  1  1  6
  1 42  1  6
  2  3  1  0
  2 22  2  0
  3  4  2  0
  3 15  1  0
  4 25  1  0
  5 21  1  0
  5 26  2  0
  5 27  1  0
  6 27  1  6
  8  7  1  6
  7  9  1  1
 28  8  1  6
  9 22  1  0
  9 23  1  1
 10 12  2  0
 10 35  1  0
 11 23  1  0
 11 30  1  0
 11 31  2  0
 12 34  1  0
 13 35  1  0
 14 15  2  0
 14 19  1  0
 14 20  1  0
 15 16  1  0
 16 17  2  0
 17 18  1  0
 18 19  2  0
 18 21  1  0
 22 24  1  0
 24 25  2  0
 28 29  1  0
 30 32  2  0
 32 33  1  0
 33 34  2  0
 33 36  1  0
 34 37  1  0
 35 36  2  0
 37 38  1  0
 37 41  1  0
 38 39  2  0
 39 40  1  0
 40 41  2  0
 42 43  2  0
 42 44  1  0
 46 44  1  6
 45 46  1  6
M  END
$$$$
