
     RDKit          3D

 46 50  0  0  0  0  0  0  0  0999 V2000
  -79.0429   44.4649   38.2668 C   0  0  2  0  0  0  0  0  0  0  0  0
  -77.5736   41.9976   39.9320 C   0  0  0  0  0  0  0  0  0  0  0  0
  -78.5361   42.4136   40.8465 C   0  0  0  0  0  0  0  0  0  0  0  0
  -79.5599   41.5187   41.1582 C   0  0  0  0  0  0  0  0  0  0  0  0
  -78.5228   48.8046   42.4892 C   0  0  0  0  0  0  0  0  0  0  0  0
  -78.9486   50.4944   44.0887 C   0  0  0  0  0  0  0  0  0  0  0  0
  -77.6519   40.3804   36.8790 C   0  0  0  0  0  0  0  0  0  0  0  0
  -78.4890   41.6725   36.6427 C   0  0  0  0  0  0  0  0  0  0  0  0
  -76.7986   40.4188   38.1505 C   0  0  1  0  0  0  0  0  0  0  0  0
  -76.7747   43.6206   41.4930 C   0  0  0  0  0  0  0  0  0  0  0  0
  -74.6706   39.2716   38.2172 C   0  0  0  0  0  0  0  0  0  0  0  0
  -75.8091   44.2999   40.7551 C   0  0  0  0  0  0  0  0  0  0  0  0
  -78.1187   41.3856   42.2278 Cl  0  0  0  0  0  0  0  0  0  0  0  0
  -78.1368   44.9127   40.5967 C   0  0  0  0  0  0  0  0  0  0  0  0
  -78.5097   43.8013   41.3826 C   0  0  0  0  0  0  0  0  0  0  0  0
  -78.7636   43.9968   42.7476 C   0  0  0  0  0  0  0  0  0  0  0  0
  -78.6468   45.2488   43.3224 C   0  0  0  0  0  0  0  0  0  0  0  0
  -78.2261   46.3348   42.5593 C   0  0  0  0  0  0  0  0  0  0  0  0
  -77.9763   46.1551   41.2008 C   0  0  0  0  0  0  0  0  0  0  0  0
  -77.9662   44.7825   39.2065 N   0  0  0  0  0  0  0  0  0  0  0  0
  -78.0754   47.6549   43.0605 N   0  0  0  0  0  0  0  0  0  0  0  0
  -77.6897   40.7560   39.3276 C   0  0  0  0  0  0  0  0  0  0  0  0
  -76.0094   39.2040   38.3609 N   0  0  0  0  0  0  0  0  0  0  0  0
  -78.6743   39.8910   39.6211 N   0  0  0  0  0  0  0  0  0  0  0  0
  -79.5881   40.2859   40.5311 C   0  0  0  0  0  0  0  0  0  0  0  0
  -78.1790   49.2522   41.4211 O   0  0  0  0  0  0  0  0  0  0  0  0
  -79.4325   49.3846   43.2867 O   0  0  0  0  0  0  0  0  0  0  0  0
  -77.6848   42.9888   36.6084 C   0  0  0  0  0  0  0  0  0  0  0  0
  -78.5040   44.2694   36.8403 C   0  0  0  0  0  0  0  0  0  0  0  0
  -73.9404   40.0695   39.2245 C   0  0  0  0  0  0  0  0  0  0  0  0
  -74.0916   38.7298   37.2848 O   0  0  0  0  0  0  0  0  0  0  0  0
  -73.8497   41.3771   39.3480 C   0  0  0  0  0  0  0  0  0  0  0  0
  -74.8365   42.1913   40.0700 C   0  0  0  0  0  0  0  0  0  0  0  0
  -74.8625   43.5928   40.0133 C   0  0  0  0  0  0  0  0  0  0  0  0
  -76.8049   42.2396   41.4558 C   0  0  0  0  0  0  0  0  0  0  0  0
  -75.8466   41.5184   40.7737 C   0  0  0  0  0  0  0  0  0  0  0  0
  -73.8364   44.2949   39.3070 N   0  0  0  0  0  0  0  0  0  0  0  0
  -73.2281   45.4701   39.4924 C   0  0  0  0  0  0  0  0  0  0  0  0
  -72.2051   45.5741   38.6920 N   0  0  0  0  0  0  0  0  0  0  0  0
  -72.1387   44.3922   38.0330 N   0  0  0  0  0  0  0  0  0  0  0  0
  -73.1078   43.6076   38.3927 N   0  0  0  0  0  0  0  0  0  0  0  0
  -80.1637   45.4961   38.2445 C   0  0  0  0  0  0  0  0  0  0  0  0
  -81.1483   45.3895   37.5688 O   0  0  0  0  0  0  0  0  0  0  0  0
  -79.9075   46.5331   39.0390 O   0  0  0  0  0  0  0  0  0  0  0  0
  -79.3434   48.8588   39.2291 C   0  0  0  0  0  0  0  0  0  0  0  0
  -80.2388   47.8708   38.5387 C   0  0  0  0  0  0  0  0  0  0  0  0
  1 20  1  0
 29  1  1  6
  1 42  1  6
  2  3  1  0
  2 22  2  0
  3  4  2  0
  3 15  1  0
  4 25  1  0
  5 21  1  0
  5 26  2  0
  5 27  1  0
  6 27  1  6
  8  7  1  6
  7  9  1  1
 28  8  1  6
  9 22  1  0
  9 23  1  1
 10 12  2  0
 10 35  1  0
 11 23  1  0
 11 30  1  0
 11 31  2  0
 12 34  1  0
 13 35  1  0
 14 15  2  0
 14 19  1  0
 14 20  1  0
 15 16  1  0
 16 17  2  0
 17 18  1  0
 18 19  2  0
 18 21  1  0
 22 24  1  0
 24 25  2  0
 28 29  1  0
 30 32  2  0
 32 33  1  0
 33 34  2  0
 33 36  1  0
 34 37  1  0
 35 36  2  0
 37 38  1  0
 37 41  1  0
 38 39  2  0
 39 40  1  0
 40 41  2  0
 42 43  2  0
 42 44  1  0
 46 44  1  6
 45 46  1  6
M  END
$$$$
