
     RDKit          3D

 46 50  0  0  0  0  0  0  0  0999 V2000
   50.7587  -81.9816   74.8451 C   0  0  2  0  0  0  0  0  0  0  0  0
   52.1618  -84.6085   76.3114 C   0  0  0  0  0  0  0  0  0  0  0  0
   53.1476  -83.6407   76.4761 C   0  0  0  0  0  0  0  0  0  0  0  0
   53.4348  -83.2266   77.7770 C   0  0  0  0  0  0  0  0  0  0  0  0
   56.2752  -80.3658   71.6145 C   0  0  0  0  0  0  0  0  0  0  0  0
   57.5079  -78.6383   72.6592 C   0  0  0  0  0  0  0  0  0  0  0  0
   48.9999  -85.1112   77.6120 C   0  0  0  0  0  0  0  0  0  0  0  0
   48.9013  -83.7262   76.9063 C   0  0  0  0  0  0  0  0  0  0  0  0
   50.2312  -85.9270   77.2065 C   0  0  1  0  0  0  0  0  0  0  0  0
   52.9468  -88.5041   84.6291 C   0  0  0  0  0  0  0  0  0  0  0  0
   51.5155  -87.6635   78.2948 C   0  0  0  0  0  0  0  0  0  0  0  0
   52.8514  -89.7571   84.0300 C   0  0  0  0  0  0  0  0  0  0  0  0
   53.2285  -85.8101   84.5553 Cl  0  0  0  0  0  0  0  0  0  0  0  0
   53.0735  -82.7206   74.1064 C   0  0  0  0  0  0  0  0  0  0  0  0
   53.7873  -83.0132   75.2882 C   0  0  0  0  0  0  0  0  0  0  0  0
   55.1732  -82.8018   75.3074 C   0  0  0  0  0  0  0  0  0  0  0  0
   55.8369  -82.3231   74.1930 C   0  0  0  0  0  0  0  0  0  0  0  0
   55.1418  -82.0864   73.0101 C   0  0  0  0  0  0  0  0  0  0  0  0
   53.7637  -82.2867   72.9796 C   0  0  0  0  0  0  0  0  0  0  0  0
   51.6712  -82.8256   74.0715 N   0  0  0  0  0  0  0  0  0  0  0  0
   55.7359  -81.5972   71.8166 N   0  0  0  0  0  0  0  0  0  0  0  0
   51.4694  -85.0803   77.4151 C   0  0  0  0  0  0  0  0  0  0  0  0
   50.3120  -87.2302   77.8685 N   0  0  0  0  0  0  0  0  0  0  0  0
   51.7390  -84.6839   78.6696 N   0  0  0  0  0  0  0  0  0  0  0  0
   52.7165  -83.7682   78.8279 C   0  0  0  0  0  0  0  0  0  0  0  0
   56.2490  -79.7348   70.5847 O   0  0  0  0  0  0  0  0  0  0  0  0
   56.8449  -79.9273   72.7473 O   0  0  0  0  0  0  0  0  0  0  0  0
   48.9327  -83.7620   75.3641 C   0  0  0  0  0  0  0  0  0  0  0  0
   49.2988  -82.4342   74.6800 C   0  0  0  0  0  0  0  0  0  0  0  0
   51.6675  -87.8533   79.7526 C   0  0  0  0  0  0  0  0  0  0  0  0
   52.4442  -87.8585   77.5218 O   0  0  0  0  0  0  0  0  0  0  0  0
   52.3818  -88.7438   80.4086 C   0  0  0  0  0  0  0  0  0  0  0  0
   52.5764  -88.7104   81.8644 C   0  0  0  0  0  0  0  0  0  0  0  0
   52.7039  -89.8676   82.6472 C   0  0  0  0  0  0  0  0  0  0  0  0
   52.9270  -87.3730   83.8355 C   0  0  0  0  0  0  0  0  0  0  0  0
   52.7275  -87.4553   82.4727 C   0  0  0  0  0  0  0  0  0  0  0  0
   52.5452  -91.1545   82.0447 N   0  0  0  0  0  0  0  0  0  0  0  0
   51.5673  -91.7264   81.3359 C   0  0  0  0  0  0  0  0  0  0  0  0
   51.9843  -92.8514   80.8272 N   0  0  0  0  0  0  0  0  0  0  0  0
   53.2890  -92.9472   81.1796 N   0  0  0  0  0  0  0  0  0  0  0  0
   53.6465  -91.9340   81.9075 N   0  0  0  0  0  0  0  0  0  0  0  0
   50.8659  -80.4982   74.5166 C   0  0  0  0  0  0  0  0  0  0  0  0
   51.8906  -79.8786   74.5779 O   0  0  0  0  0  0  0  0  0  0  0  0
   49.6899  -79.9719   74.1816 O   0  0  0  0  0  0  0  0  0  0  0  0
   50.5728  -77.9482   75.1243 C   0  0  0  0  0  0  0  0  0  0  0  0
   49.3126  -78.6994   74.8042 C   0  0  0  0  0  0  0  0  0  0  0  0
  1 20  1  0
 29  1  1  6
  1 42  1  6
  2  3  1  0
  2 22  2  0
  3  4  2  0
  3 15  1  0
  4 25  1  0
  5 21  1  0
  5 26  2  0
  5 27  1  0
  6 27  1  6
  8  7  1  6
  7  9  1  1
 28  8  1  6
  9 22  1  0
  9 23  1  1
 10 12  2  0
 10 35  1  0
 11 23  1  0
 11 30  1  0
 11 31  2  0
 12 34  1  0
 13 35  1  0
 14 15  2  0
 14 19  1  0
 14 20  1  0
 15 16  1  0
 16 17  2  0
 17 18  1  0
 18 19  2  0
 18 21  1  0
 22 24  1  0
 24 25  2  0
 28 29  1  0
 30 32  2  0
 32 33  1  0
 33 34  2  0
 33 36  1  0
 34 37  1  0
 35 36  2  0
 37 38  1  0
 37 41  1  0
 38 39  2  0
 39 40  1  0
 40 41  2  0
 42 43  2  0
 42 44  1  0
 46 44  1  6
 45 46  1  6
M  END
$$$$
