
     RDKit          3D

 46 50  0  0  0  0  0  0  0  0999 V2000
   31.6398   40.8993    0.9679 C   0  0  2  0  0  0  0  0  0  0  0  0
   30.0263   38.1794    1.9767 C   0  0  0  0  0  0  0  0  0  0  0  0
   29.0867   38.7605    1.1311 C   0  0  0  0  0  0  0  0  0  0  0  0
   28.7572   38.0731   -0.0373 C   0  0  0  0  0  0  0  0  0  0  0  0
   26.2019   44.7075    1.8569 C   0  0  0  0  0  0  0  0  0  0  0  0
   26.9068   45.5349   -0.2439 C   0  0  0  0  0  0  0  0  0  0  0  0
   33.0875   36.6406    1.5259 C   0  0  0  0  0  0  0  0  0  0  0  0
   33.2953   38.0707    0.9450 C   0  0  0  0  0  0  0  0  0  0  0  0
   31.8361   36.5020    2.3983 C   0  0  1  0  0  0  0  0  0  0  0  0
   32.1190   35.4649   -3.4392 C   0  0  0  0  0  0  0  0  0  0  0  0
   30.6858   34.3747    2.4254 C   0  0  0  0  0  0  0  0  0  0  0  0
   30.7386   35.3092   -3.5309 C   0  0  0  0  0  0  0  0  0  0  0  0
   34.4378   35.6569   -2.0506 Cl  0  0  0  0  0  0  0  0  0  0  0  0
   29.3288   41.1409    1.9930 C   0  0  0  0  0  0  0  0  0  0  0  0
   28.5420   40.1119    1.4327 C   0  0  0  0  0  0  0  0  0  0  0  0
   27.1702   40.3370    1.2502 C   0  0  0  0  0  0  0  0  0  0  0  0
   26.5898   41.5375    1.6156 C   0  0  0  0  0  0  0  0  0  0  0  0
   27.3551   42.5321    2.2186 C   0  0  0  0  0  0  0  0  0  0  0  0
   28.7203   42.3233    2.4000 C   0  0  0  0  0  0  0  0  0  0  0  0
   30.7235   40.9960    2.1055 N   0  0  0  0  0  0  0  0  0  0  0  0
   26.8487   43.7939    2.6285 N   0  0  0  0  0  0  0  0  0  0  0  0
   30.6362   36.9893    1.6134 C   0  0  0  0  0  0  0  0  0  0  0  0
   31.6525   35.1570    2.9463 N   0  0  0  0  0  0  0  0  0  0  0  0
   30.3255   36.3239    0.4888 N   0  0  0  0  0  0  0  0  0  0  0  0
   29.3918   36.8753   -0.3132 C   0  0  0  0  0  0  0  0  0  0  0  0
   25.0055   44.8519    1.7723 O   0  0  0  0  0  0  0  0  0  0  0  0
   27.0956   45.4569    1.1938 O   0  0  0  0  0  0  0  0  0  0  0  0
   33.3395   39.2105    1.9840 C   0  0  0  0  0  0  0  0  0  0  0  0
   33.0799   40.6208    1.4286 C   0  0  0  0  0  0  0  0  0  0  0  0
   30.0582   34.8497    1.1744 C   0  0  0  0  0  0  0  0  0  0  0  0
   30.3225   33.3429    2.9743 O   0  0  0  0  0  0  0  0  0  0  0  0
   29.9393   34.2372    0.0151 C   0  0  0  0  0  0  0  0  0  0  0  0
   30.6478   34.6617   -1.1999 C   0  0  0  0  0  0  0  0  0  0  0  0
   29.9944   34.9449   -2.4086 C   0  0  0  0  0  0  0  0  0  0  0  0
   32.7386   35.2870   -2.2169 C   0  0  0  0  0  0  0  0  0  0  0  0
   32.0315   34.8738   -1.1066 C   0  0  0  0  0  0  0  0  0  0  0  0
   28.5859   34.7271   -2.5233 N   0  0  0  0  0  0  0  0  0  0  0  0
   27.6014   34.5723   -1.6331 C   0  0  0  0  0  0  0  0  0  0  0  0
   26.4460   34.6104   -2.2346 N   0  0  0  0  0  0  0  0  0  0  0  0
   26.7231   34.8639   -3.5364 N   0  0  0  0  0  0  0  0  0  0  0  0
   28.0040   34.9427   -3.7291 N   0  0  0  0  0  0  0  0  0  0  0  0
   31.6289   42.1249    0.0636 C   0  0  0  0  0  0  0  0  0  0  0  0
   32.4681   42.3448   -0.7641 O   0  0  0  0  0  0  0  0  0  0  0  0
   30.5986   42.9282    0.3192 O   0  0  0  0  0  0  0  0  0  0  0  0
   30.4900   45.1516    1.2180 C   0  0  0  0  0  0  0  0  0  0  0  0
   30.7408   44.3463   -0.0242 C   0  0  0  0  0  0  0  0  0  0  0  0
  1 20  1  0
 29  1  1  6
  1 42  1  1
  2  3  1  0
  2 22  2  0
  3  4  2  0
  3 15  1  0
  4 25  1  0
  5 21  1  0
  5 26  2  0
  5 27  1  0
  6 27  1  6
  8  7  1  6
  7  9  1  1
 28  8  1  6
  9 22  1  0
  9 23  1  6
 10 12  2  0
 10 35  1  0
 11 23  1  0
 11 30  1  0
 11 31  2  0
 12 34  1  0
 13 35  1  0
 14 15  2  0
 14 19  1  0
 14 20  1  0
 15 16  1  0
 16 17  2  0
 17 18  1  0
 18 19  2  0
 18 21  1  0
 22 24  1  0
 24 25  2  0
 28 29  1  0
 30 32  2  0
 32 33  1  0
 33 34  2  0
 33 36  1  0
 34 37  1  0
 35 36  2  0
 37 38  1  0
 37 41  1  0
 38 39  2  0
 39 40  1  0
 40 41  2  0
 42 43  2  0
 42 44  1  0
 46 44  1  6
 45 46  1  6
M  END
$$$$
