
     RDKit          3D

 46 50  0  0  0  0  0  0  0  0999 V2000
  344.0665   58.2869 -275.4136 C   0  0  2  0  0  0  0  0  0  0  0  0
  340.9424   58.8023 -276.4106 C   0  0  0  0  0  0  0  0  0  0  0  0
  341.5681   59.9647 -276.8498 C   0  0  0  0  0  0  0  0  0  0  0  0
  341.6506   60.1728 -278.2268 C   0  0  0  0  0  0  0  0  0  0  0  0
  343.9368   64.8829 -273.0372 C   0  0  0  0  0  0  0  0  0  0  0  0
  345.9070   66.1639 -272.7680 C   0  0  0  0  0  0  0  0  0  0  0  0
  341.0716   55.4720 -277.3242 C   0  0  0  0  0  0  0  0  0  0  0  0
  342.5365   55.8076 -276.9150 C   0  0  0  0  0  0  0  0  0  0  0  0
  340.0449   56.5084 -276.8575 C   0  0  1  0  0  0  0  0  0  0  0  0
  339.2546   54.6100 -273.1048 C   0  0  0  0  0  0  0  0  0  0  0  0
  337.8109   57.1914 -277.4836 C   0  0  0  0  0  0  0  0  0  0  0  0
  338.2940   55.3264 -272.3962 C   0  0  0  0  0  0  0  0  0  0  0  0
  340.3885   53.7071 -275.3942 Cl  0  0  0  0  0  0  0  0  0  0  0  0
  342.8849   60.4265 -274.7237 C   0  0  0  0  0  0  0  0  0  0  0  0
  342.2061   60.8872 -275.8722 C   0  0  0  0  0  0  0  0  0  0  0  0
  342.0352   62.2681 -276.0444 C   0  0  0  0  0  0  0  0  0  0  0  0
  342.5128   63.1678 -275.1095 C   0  0  0  0  0  0  0  0  0  0  0  0
  343.1339   62.7115 -273.9500 C   0  0  0  0  0  0  0  0  0  0  0  0
  343.3152   61.3423 -273.7695 C   0  0  0  0  0  0  0  0  0  0  0  0
  343.1638   59.0579 -274.5569 N   0  0  0  0  0  0  0  0  0  0  0  0
  343.6541   63.5572 -272.9345 N   0  0  0  0  0  0  0  0  0  0  0  0
  340.4810   57.8780 -277.3343 C   0  0  0  0  0  0  0  0  0  0  0  0
  338.6701   56.1814 -277.2395 N   0  0  0  0  0  0  0  0  0  0  0  0
  340.5596   58.0709 -278.6611 N   0  0  0  0  0  0  0  0  0  0  0  0
  341.1394   59.2135 -279.0825 C   0  0  0  0  0  0  0  0  0  0  0  0
  343.1711   65.7946 -272.8324 O   0  0  0  0  0  0  0  0  0  0  0  0
  345.2196   65.0480 -273.3935 O   0  0  0  0  0  0  0  0  0  0  0  0
  342.7711   56.0295 -275.4063 C   0  0  0  0  0  0  0  0  0  0  0  0
  344.0547   56.7948 -275.0432 C   0  0  0  0  0  0  0  0  0  0  0  0
  336.6940   57.3499 -276.5289 C   0  0  0  0  0  0  0  0  0  0  0  0
  337.9283   57.9189 -278.4608 O   0  0  0  0  0  0  0  0  0  0  0  0
  336.7073   57.3036 -275.2132 C   0  0  0  0  0  0  0  0  0  0  0  0
  337.5616   56.3877 -274.4452 C   0  0  0  0  0  0  0  0  0  0  0  0
  337.4220   56.1866 -273.0639 C   0  0  0  0  0  0  0  0  0  0  0  0
  339.3126   54.7355 -274.4798 C   0  0  0  0  0  0  0  0  0  0  0  0
  338.4973   55.6205 -275.1551 C   0  0  0  0  0  0  0  0  0  0  0  0
  336.4785   56.9655 -272.3238 N   0  0  0  0  0  0  0  0  0  0  0  0
  335.1588   56.8780 -272.1328 C   0  0  0  0  0  0  0  0  0  0  0  0
  334.7868   57.7086 -271.2001 N   0  0  0  0  0  0  0  0  0  0  0  0
  335.9282   58.2846 -270.7515 N   0  0  0  0  0  0  0  0  0  0  0  0
  336.9567   57.8469 -271.4109 N   0  0  0  0  0  0  0  0  0  0  0  0
  345.5023   58.7952 -275.4089 C   0  0  0  0  0  0  0  0  0  0  0  0
  346.4600   58.0743 -275.3851 O   0  0  0  0  0  0  0  0  0  0  0  0
  345.5641   60.1251 -275.4077 O   0  0  0  0  0  0  0  0  0  0  0  0
  346.8336   60.7525 -277.3462 C   0  0  0  0  0  0  0  0  0  0  0  0
  345.4791   60.8105 -276.7010 C   0  0  0  0  0  0  0  0  0  0  0  0
  1 20  1  0
 29  1  1  6
  1 42  1  1
  2  3  1  0
  2 22  2  0
  3  4  2  0
  3 15  1  0
  4 25  1  0
  5 21  1  0
  5 26  2  0
  5 27  1  0
  6 27  1  6
  8  7  1  6
  7  9  1  1
 28  8  1  6
  9 22  1  0
  9 23  1  6
 10 12  2  0
 10 35  1  0
 11 23  1  0
 11 30  1  0
 11 31  2  0
 12 34  1  0
 13 35  1  0
 14 15  2  0
 14 19  1  0
 14 20  1  0
 15 16  1  0
 16 17  2  0
 17 18  1  0
 18 19  2  0
 18 21  1  0
 22 24  1  0
 24 25  2  0
 28 29  1  0
 30 32  2  0
 32 33  1  0
 33 34  2  0
 33 36  1  0
 34 37  1  0
 35 36  2  0
 37 38  1  0
 37 41  1  0
 38 39  2  0
 39 40  1  0
 40 41  2  0
 42 43  2  0
 42 44  1  0
 46 44  1  6
 45 46  1  6
M  END
$$$$
