
     RDKit          3D

 20 22  0  0  0  0  0  0  0  0999 V2000
  -27.7623   28.2211   26.3816 N   0  0  0  0  0  0  0  0  0  0  0  0
  -29.7547   30.3925   22.7504 C   0  0  0  0  0  0  0  0  0  0  0  0
  -29.0961   31.6165   22.9946 C   0  0  0  0  0  0  0  0  0  0  0  0
  -29.1807   32.7329   22.1272 C   0  0  0  0  0  0  0  0  0  0  0  0
  -28.5176   33.8880   22.4170 C   0  0  0  0  0  0  0  0  0  0  0  0
  -27.7372   33.9873   23.5596 C   0  0  0  0  0  0  0  0  0  0  0  0
  -28.3025   31.7095   24.1723 C   0  0  0  0  0  0  0  0  0  0  0  0
  -30.4791   25.7384   26.1885 C   0  0  0  0  0  0  0  0  0  0  0  0
  -31.4147   27.8934   26.6263 C   0  0  0  0  0  0  0  0  0  0  0  0
  -27.2819   29.3137   28.3166 O   0  0  0  0  0  0  0  0  0  0  0  0
  -27.4424   29.3174   27.0966 C   0  0  0  0  0  0  0  0  0  0  0  0
  -29.0513   27.6670   26.2699 C   0  0  0  0  0  0  0  0  0  0  0  0
  -30.1603   28.4678   26.5227 C   0  0  0  0  0  0  0  0  0  0  0  0
  -31.5722   26.5317   26.4656 C   0  0  0  0  0  0  0  0  0  0  0  0
  -29.2171   26.2986   26.0826 C   0  0  0  0  0  0  0  0  0  0  0  0
  -27.3562   30.5886   26.2769 C   0  0  0  0  0  0  0  0  0  0  0  0
  -28.2041   30.5685   25.0272 C   0  0  0  0  0  0  0  0  0  0  0  0
  -27.6275   32.9334   24.4233 C   0  0  0  0  0  0  0  0  0  0  0  0
  -29.6708   29.3363   23.5450 N   0  0  0  0  0  0  0  0  0  0  0  0
  -28.9109   29.4460   24.6417 C   0  0  0  0  0  0  0  0  0  0  0  0
  1 11  1  0
  1 12  1  0
  2  3  2  0
  2 19  1  0
  3  4  1  0
  3  7  1  0
  4  5  2  0
  5  6  1  0
  6 18  2  0
  7 17  2  0
  7 18  1  0
  8 14  2  0
  8 15  1  0
  9 13  2  0
  9 14  1  0
 10 11  2  0
 16 11  1  6
 12 13  1  0
 12 15  2  0
 16 17  1  0
 17 20  1  0
 19 20  2  0
M  END
$$$$
