
     RDKit          3D

 20 22  0  0  0  0  0  0  0  0999 V2000
   73.7711  -49.6222    6.7999 N   0  0  0  0  0  0  0  0  0  0  0  0
   71.5101  -52.4598   10.3364 C   0  0  0  0  0  0  0  0  0  0  0  0
   71.7014  -53.0287    9.0593 C   0  0  0  0  0  0  0  0  0  0  0  0
   71.9510  -54.4071    8.8503 C   0  0  0  0  0  0  0  0  0  0  0  0
   72.1309  -54.8960    7.5907 C   0  0  0  0  0  0  0  0  0  0  0  0
   72.0861  -54.0509    6.4915 C   0  0  0  0  0  0  0  0  0  0  0  0
   71.6482  -52.1538    7.9380 C   0  0  0  0  0  0  0  0  0  0  0  0
   74.3643  -52.6100    8.8742 C   0  0  0  0  0  0  0  0  0  0  0  0
   73.4341  -53.2818    6.7779 C   0  0  0  0  0  0  0  0  0  0  0  0
   72.5849  -47.6895    6.9623 O   0  0  0  0  0  0  0  0  0  0  0  0
   72.6274  -48.9180    6.9074 C   0  0  0  0  0  0  0  0  0  0  0  0
   73.9390  -50.9684    7.1745 C   0  0  0  0  0  0  0  0  0  0  0  0
   73.4704  -51.9723    6.3330 C   0  0  0  0  0  0  0  0  0  0  0  0
   73.8743  -53.5984    8.0471 C   0  0  0  0  0  0  0  0  0  0  0  0
   74.4061  -51.2946    8.4436 C   0  0  0  0  0  0  0  0  0  0  0  0
   71.3817  -49.7727    7.0212 C   0  0  0  0  0  0  0  0  0  0  0  0
   71.4208  -50.7609    8.1628 C   0  0  0  0  0  0  0  0  0  0  0  0
   71.8488  -52.7139    6.6486 C   0  0  0  0  0  0  0  0  0  0  0  0
   71.2922  -51.1704   10.5465 N   0  0  0  0  0  0  0  0  0  0  0  0
   71.2556  -50.3669    9.4763 C   0  0  0  0  0  0  0  0  0  0  0  0
  1 11  1  0
  1 12  1  0
  2  3  2  0
  2 19  1  0
  3  4  1  0
  3  7  1  0
  4  5  2  0
  5  6  1  0
  6 18  2  0
  7 17  2  0
  7 18  1  0
  8 14  2  0
  8 15  1  0
  9 13  2  0
  9 14  1  0
 10 11  2  0
 16 11  1  6
 12 13  1  0
 12 15  2  0
 16 17  1  0
 17 20  1  0
 19 20  2  0
M  END
$$$$
