
     RDKit          3D

 20 22  0  0  0  0  0  0  0  0999 V2000
  -69.6276   51.9709   48.7384 N   0  0  0  0  0  0  0  0  0  0  0  0
  -66.2028   51.9558   45.1314 C   0  0  0  0  0  0  0  0  0  0  0  0
  -66.4441   51.7057   46.4991 C   0  0  0  0  0  0  0  0  0  0  0  0
  -65.4288   51.3330   47.4135 C   0  0  0  0  0  0  0  0  0  0  0  0
  -65.7263   51.1015   48.7235 C   0  0  0  0  0  0  0  0  0  0  0  0
  -67.0306   51.2136   49.1824 C   0  0  0  0  0  0  0  0  0  0  0  0
  -67.7848   51.8286   46.9607 C   0  0  0  0  0  0  0  0  0  0  0  0
  -66.6312   53.9759   49.5019 C   0  0  0  0  0  0  0  0  0  0  0  0
  -67.2430   54.3177   47.2172 C   0  0  0  0  0  0  0  0  0  0  0  0
  -71.5309   50.9770   47.9913 O   0  0  0  0  0  0  0  0  0  0  0  0
  -70.5515   51.6960   47.7969 C   0  0  0  0  0  0  0  0  0  0  0  0
  -68.6129   52.9399   48.6277 C   0  0  0  0  0  0  0  0  0  0  0  0
  -68.3658   53.5283   47.3915 C   0  0  0  0  0  0  0  0  0  0  0  0
  -66.3752   54.5356   48.2681 C   0  0  0  0  0  0  0  0  0  0  0  0
  -67.7502   53.1827   49.6917 C   0  0  0  0  0  0  0  0  0  0  0  0
  -70.2522   52.2995   46.4398 C   0  0  0  0  0  0  0  0  0  0  0  0
  -68.8051   52.1806   46.0240 C   0  0  0  0  0  0  0  0  0  0  0  0
  -68.0408   51.5699   48.3333 C   0  0  0  0  0  0  0  0  0  0  0  0
  -67.1457   52.2891   44.2631 N   0  0  0  0  0  0  0  0  0  0  0  0
  -68.4001   52.3895   44.7200 C   0  0  0  0  0  0  0  0  0  0  0  0
  1 11  1  0
  1 12  1  0
  2  3  2  0
  2 19  1  0
  3  4  1  0
  3  7  1  0
  4  5  2  0
  5  6  1  0
  6 18  2  0
  7 17  2  0
  7 18  1  0
  8 14  2  0
  8 15  1  0
  9 13  2  0
  9 14  1  0
 10 11  2  0
 16 11  1  6
 12 13  1  0
 12 15  2  0
 16 17  1  0
 17 20  1  0
 19 20  2  0
M  END
$$$$
