
     RDKit          3D

 20 22  0  0  0  0  0  0  0  0999 V2000
 -120.9964   57.8903  -49.3972 N   0  0  0  0  0  0  0  0  0  0  0  0
 -115.7676   54.7719  -47.5301 C   0  0  0  0  0  0  0  0  0  0  0  0
 -116.6215   54.8494  -46.4093 C   0  0  0  0  0  0  0  0  0  0  0  0
 -116.2316   54.4592  -45.1048 C   0  0  0  0  0  0  0  0  0  0  0  0
 -117.1046   54.5550  -44.0623 C   0  0  0  0  0  0  0  0  0  0  0  0
 -118.3949   55.0237  -44.2619 C   0  0  0  0  0  0  0  0  0  0  0  0
 -117.9414   55.3367  -46.6240 C   0  0  0  0  0  0  0  0  0  0  0  0
 -121.2484   58.6247  -52.9997 C   0  0  0  0  0  0  0  0  0  0  0  0
 -122.9288   57.0335  -52.4037 C   0  0  0  0  0  0  0  0  0  0  0  0
 -118.7288   58.0516  -49.4233 O   0  0  0  0  0  0  0  0  0  0  0  0
 -119.7573   57.4792  -49.0641 C   0  0  0  0  0  0  0  0  0  0  0  0
 -121.5078   57.9631  -50.7064 C   0  0  0  0  0  0  0  0  0  0  0  0
 -122.5577   57.1278  -51.0743 C   0  0  0  0  0  0  0  0  0  0  0  0
 -122.2716   57.7757  -53.3642 C   0  0  0  0  0  0  0  0  0  0  0  0
 -120.8649   58.7292  -51.6733 C   0  0  0  0  0  0  0  0  0  0  0  0
 -119.7256   56.2004  -48.2524 C   0  0  0  0  0  0  0  0  0  0  0  0
 -118.3319   55.7037  -47.9488 C   0  0  0  0  0  0  0  0  0  0  0  0
 -118.8123   55.4101  -45.5049 C   0  0  0  0  0  0  0  0  0  0  0  0
 -116.1251   55.1183  -48.7574 N   0  0  0  0  0  0  0  0  0  0  0  0
 -117.3746   55.5650  -48.9349 C   0  0  0  0  0  0  0  0  0  0  0  0
  1 11  1  0
  1 12  1  0
  2  3  2  0
  2 19  1  0
  3  4  1  0
  3  7  1  0
  4  5  2  0
  5  6  1  0
  6 18  2  0
  7 17  2  0
  7 18  1  0
  8 14  2  0
  8 15  1  0
  9 13  2  0
  9 14  1  0
 10 11  2  0
 16 11  1  6
 12 13  1  0
 12 15  2  0
 16 17  1  0
 17 20  1  0
 19 20  2  0
M  END
$$$$
