
     RDKit          3D

 20 22  0  0  0  0  0  0  0  0999 V2000
 -174.5833  131.8538   44.6478 N   0  0  0  0  0  0  0  0  0  0  0  0
 -171.2976  131.3686   48.3474 C   0  0  0  0  0  0  0  0  0  0  0  0
 -171.9491  130.5643   47.3880 C   0  0  0  0  0  0  0  0  0  0  0  0
 -171.4292  129.3318   46.9229 C   0  0  0  0  0  0  0  0  0  0  0  0
 -172.1051  128.6014   45.9913 C   0  0  0  0  0  0  0  0  0  0  0  0
 -173.3076  129.0580   45.4718 C   0  0  0  0  0  0  0  0  0  0  0  0
 -173.1848  131.0393   46.8655 C   0  0  0  0  0  0  0  0  0  0  0  0
 -174.2182  129.9246   41.5290 C   0  0  0  0  0  0  0  0  0  0  0  0
 -174.7200  128.4282   43.3234 C   0  0  0  0  0  0  0  0  0  0  0  0
 -176.7143  131.9003   45.4383 O   0  0  0  0  0  0  0  0  0  0  0  0
 -175.5165  132.1470   45.5744 C   0  0  0  0  0  0  0  0  0  0  0  0
 -174.6551  130.7946   43.7238 C   0  0  0  0  0  0  0  0  0  0  0  0
 -174.8586  129.4991   44.1882 C   0  0  0  0  0  0  0  0  0  0  0  0
 -174.3945  128.6405   41.9989 C   0  0  0  0  0  0  0  0  0  0  0  0
 -174.3529  131.0067   42.3826 C   0  0  0  0  0  0  0  0  0  0  0  0
 -174.9769  132.8734   46.7895 C   0  0  0  0  0  0  0  0  0  0  0  0
 -173.6872  132.2964   47.3234 C   0  0  0  0  0  0  0  0  0  0  0  0
 -173.8444  130.2427   45.8925 C   0  0  0  0  0  0  0  0  0  0  0  0
 -171.7652  132.5303   48.7784 N   0  0  0  0  0  0  0  0  0  0  0  0
 -172.9247  132.9596   48.2650 C   0  0  0  0  0  0  0  0  0  0  0  0
  1 11  1  0
  1 12  1  0
  2  3  2  0
  2 19  1  0
  3  4  1  0
  3  7  1  0
  4  5  2  0
  5  6  1  0
  6 18  2  0
  7 17  2  0
  7 18  1  0
  8 14  2  0
  8 15  1  0
  9 13  2  0
  9 14  1  0
 10 11  2  0
 16 11  1  6
 12 13  1  0
 12 15  2  0
 16 17  1  0
 17 20  1  0
 19 20  2  0
M  END
$$$$
