
     RDKit          3D

 20 22  0  0  0  0  0  0  0  0999 V2000
  141.0412   52.7510   62.1219 N   0  0  0  0  0  0  0  0  0  0  0  0
  139.6076   51.0233   56.4909 C   0  0  0  0  0  0  0  0  0  0  0  0
  140.8176   50.8897   57.2047 C   0  0  0  0  0  0  0  0  0  0  0  0
  142.0445   50.5282   56.5966 C   0  0  0  0  0  0  0  0  0  0  0  0
  143.1801   50.4121   57.3417 C   0  0  0  0  0  0  0  0  0  0  0  0
  143.1524   50.6327   58.7110 C   0  0  0  0  0  0  0  0  0  0  0  0
  140.7792   51.1234   58.6081 C   0  0  0  0  0  0  0  0  0  0  0  0
  138.8700   55.5337   63.1823 C   0  0  0  0  0  0  0  0  0  0  0  0
  140.0497   56.1686   61.2032 C   0  0  0  0  0  0  0  0  0  0  0  0
  141.4758   50.6505   61.3684 O   0  0  0  0  0  0  0  0  0  0  0  0
  140.7348   51.6303   61.4397 C   0  0  0  0  0  0  0  0  0  0  0  0
  140.3087   53.9524   62.0894 C   0  0  0  0  0  0  0  0  0  0  0  0
  140.6067   54.9049   61.1203 C   0  0  0  0  0  0  0  0  0  0  0  0
  139.1885   56.4835   62.2349 C   0  0  0  0  0  0  0  0  0  0  0  0
  139.4202   54.2648   63.1132 C   0  0  0  0  0  0  0  0  0  0  0  0
  139.4128   51.6953   60.7026 C   0  0  0  0  0  0  0  0  0  0  0  0
  139.5306   51.4629   59.2149 C   0  0  0  0  0  0  0  0  0  0  0  0
  141.9891   50.9825   59.3380 C   0  0  0  0  0  0  0  0  0  0  0  0
  138.4509   51.3448   57.0501 N   0  0  0  0  0  0  0  0  0  0  0  0
  138.4392   51.5507   58.3729 C   0  0  0  0  0  0  0  0  0  0  0  0
  1 11  1  0
  1 12  1  0
  2  3  2  0
  2 19  1  0
  3  4  1  0
  3  7  1  0
  4  5  2  0
  5  6  1  0
  6 18  2  0
  7 17  2  0
  7 18  1  0
  8 14  2  0
  8 15  1  0
  9 13  2  0
  9 14  1  0
 10 11  2  0
 16 11  1  6
 12 13  1  0
 12 15  2  0
 16 17  1  0
 17 20  1  0
 19 20  2  0
M  END
$$$$
