
     RDKit          3D

 20 22  0  0  0  0  0  0  0  0999 V2000
  -49.3910   -0.9156   70.5761 N   0  0  0  0  0  0  0  0  0  0  0  0
  -44.7456    2.1073   73.6265 C   0  0  0  0  0  0  0  0  0  0  0  0
  -45.3570    2.6469   72.4747 C   0  0  0  0  0  0  0  0  0  0  0  0
  -44.8254    3.7426   71.7518 C   0  0  0  0  0  0  0  0  0  0  0  0
  -45.4655    4.2208   70.6474 C   0  0  0  0  0  0  0  0  0  0  0  0
  -46.6559    3.6519   70.2188 C   0  0  0  0  0  0  0  0  0  0  0  0
  -46.5751    2.0525   72.0404 C   0  0  0  0  0  0  0  0  0  0  0  0
  -50.2561   -4.1884   72.0328 C   0  0  0  0  0  0  0  0  0  0  0  0
  -48.1500   -4.3581   70.9163 C   0  0  0  0  0  0  0  0  0  0  0  0
  -47.9930    0.8103   70.0903 O   0  0  0  0  0  0  0  0  0  0  0  0
  -48.5871    0.1124   70.9114 C   0  0  0  0  0  0  0  0  0  0  0  0
  -49.2659   -2.2364   71.0459 C   0  0  0  0  0  0  0  0  0  0  0  0
  -48.1783   -3.0028   70.6400 C   0  0  0  0  0  0  0  0  0  0  0  0
  -49.1891   -4.9500   71.6056 C   0  0  0  0  0  0  0  0  0  0  0  0
  -50.2992   -2.8309   71.7630 C   0  0  0  0  0  0  0  0  0  0  0  0
  -48.4185    0.3060   72.4046 C   0  0  0  0  0  0  0  0  0  0  0  0
  -47.1153    0.9637   72.7922 C   0  0  0  0  0  0  0  0  0  0  0  0
  -47.2041    2.5934   70.8880 C   0  0  0  0  0  0  0  0  0  0  0  0
  -45.2408    1.0938   74.3205 N   0  0  0  0  0  0  0  0  0  0  0  0
  -46.3921    0.5578   73.8969 C   0  0  0  0  0  0  0  0  0  0  0  0
  1 11  1  0
  1 12  1  0
  2  3  2  0
  2 19  1  0
  3  4  1  0
  3  7  1  0
  4  5  2  0
  5  6  1  0
  6 18  2  0
  7 17  2  0
  7 18  1  0
  8 14  2  0
  8 15  1  0
  9 13  2  0
  9 14  1  0
 10 11  2  0
 16 11  1  6
 12 13  1  0
 12 15  2  0
 16 17  1  0
 17 20  1  0
 19 20  2  0
M  END
$$$$
