
     RDKit          3D

 20 22  0  0  0  0  0  0  0  0999 V2000
-2070.3125  671.5268-1446.5057 N   0  0  0  0  0  0  0  0  0  0  0  0
-2068.5237  676.1367-1442.7797 C   0  0  0  0  0  0  0  0  0  0  0  0
-2069.6589  675.4843-1442.2549 C   0  0  0  0  0  0  0  0  0  0  0  0
-2070.0667  675.5975-1440.9032 C   0  0  0  0  0  0  0  0  0  0  0  0
-2071.1724  674.9390-1440.4547 C   0  0  0  0  0  0  0  0  0  0  0  0
-2071.9121  674.1359-1441.3109 C   0  0  0  0  0  0  0  0  0  0  0  0
-2070.4141  674.6671-1443.1427 C   0  0  0  0  0  0  0  0  0  0  0  0
-2069.3696  667.9651-1446.5405 C   0  0  0  0  0  0  0  0  0  0  0  0
-2067.7290  669.2004-1445.3168 C   0  0  0  0  0  0  0  0  0  0  0  0
-2068.6978  673.1184-1446.6754 O   0  0  0  0  0  0  0  0  0  0  0  0
-2069.8118  672.7607-1446.2958 C   0  0  0  0  0  0  0  0  0  0  0  0
-2069.6731  670.3184-1446.1742 C   0  0  0  0  0  0  0  0  0  0  0  0
-2068.4763  670.3550-1445.4641 C   0  0  0  0  0  0  0  0  0  0  0  0
-2068.1719  668.0106-1445.8590 C   0  0  0  0  0  0  0  0  0  0  0  0
-2070.1282  669.1130-1446.6968 C   0  0  0  0  0  0  0  0  0  0  0  0
-2070.7161  673.6668-1445.4852 C   0  0  0  0  0  0  0  0  0  0  0  0
-2069.9788  674.5406-1444.4980 C   0  0  0  0  0  0  0  0  0  0  0  0
-2071.5527  673.9987-1442.6230 C   0  0  0  0  0  0  0  0  0  0  0  0
-2068.1238  676.0268-1444.0377 N   0  0  0  0  0  0  0  0  0  0  0  0
-2068.8452  675.2446-1444.8500 C   0  0  0  0  0  0  0  0  0  0  0  0
  1 11  1  0
  1 12  1  0
  2  3  2  0
  2 19  1  0
  3  4  1  0
  3  7  1  0
  4  5  2  0
  5  6  1  0
  6 18  2  0
  7 17  2  0
  7 18  1  0
  8 14  2  0
  8 15  1  0
  9 13  2  0
  9 14  1  0
 10 11  2  0
 16 11  1  6
 12 13  1  0
 12 15  2  0
 16 17  1  0
 17 20  1  0
 19 20  2  0
M  END
$$$$
