
     RDKit          3D

 20 22  0  0  0  0  0  0  0  0999 V2000
   35.2941  174.9779   71.6986 N   0  0  0  0  0  0  0  0  0  0  0  0
   31.6122  176.2362   74.6377 C   0  0  0  0  0  0  0  0  0  0  0  0
   32.1278  175.0819   74.0108 C   0  0  0  0  0  0  0  0  0  0  0  0
   31.9314  173.7712   74.5099 C   0  0  0  0  0  0  0  0  0  0  0  0
   32.4585  172.6953   73.8597 C   0  0  0  0  0  0  0  0  0  0  0  0
   33.2081  172.8651   72.7048 C   0  0  0  0  0  0  0  0  0  0  0  0
   32.8909  175.2669   72.8237 C   0  0  0  0  0  0  0  0  0  0  0  0
   32.6257  174.8754   74.2385 C   0  0  0  0  0  0  0  0  0  0  0  0
   32.6494  172.8074   73.0411 C   0  0  0  0  0  0  0  0  0  0  0  0
   36.2916  176.7434   70.6706 O   0  0  0  0  0  0  0  0  0  0  0  0
   35.2852  176.1926   71.1154 C   0  0  0  0  0  0  0  0  0  0  0  0
   34.3032  174.4819   72.5664 C   0  0  0  0  0  0  0  0  0  0  0  0
   33.7644  173.2207   72.3338 C   0  0  0  0  0  0  0  0  0  0  0  0
   32.0785  173.6352   73.9864 C   0  0  0  0  0  0  0  0  0  0  0  0
   33.7409  175.3033   73.5381 C   0  0  0  0  0  0  0  0  0  0  0  0
   33.9281  176.8661   71.1067 C   0  0  0  0  0  0  0  0  0  0  0  0
   33.1040  176.5958   72.3432 C   0  0  0  0  0  0  0  0  0  0  0  0
   33.4227  174.1130   72.1896 C   0  0  0  0  0  0  0  0  0  0  0  0
   31.8024  177.4682   74.1901 N   0  0  0  0  0  0  0  0  0  0  0  0
   32.5311  177.6165   73.0769 C   0  0  0  0  0  0  0  0  0  0  0  0
  1 11  1  0
  1 12  1  0
  2  3  2  0
  2 19  1  0
  3  4  1  0
  3  7  1  0
  4  5  2  0
  5  6  1  0
  6 18  2  0
  7 17  2  0
  7 18  1  0
  8 14  2  0
  8 15  1  0
  9 13  2  0
  9 14  1  0
 10 11  2  0
 16 11  1  6
 12 13  1  0
 12 15  2  0
 16 17  1  0
 17 20  1  0
 19 20  2  0
M  END
$$$$
