
     RDKit          3D

 20 22  0  0  0  0  0  0  0  0999 V2000
 -141.4161   84.1183   64.3335 N   0  0  0  0  0  0  0  0  0  0  0  0
 -143.0629   88.8199   63.3298 C   0  0  0  0  0  0  0  0  0  0  0  0
 -144.0918   88.2632   62.5404 C   0  0  0  0  0  0  0  0  0  0  0  0
 -144.9117   89.0294   61.6765 C   0  0  0  0  0  0  0  0  0  0  0  0
 -145.8925   88.4329   60.9413 C   0  0  0  0  0  0  0  0  0  0  0  0
 -146.1144   87.0668   61.0356 C   0  0  0  0  0  0  0  0  0  0  0  0
 -144.3076   86.8600   62.6406 C   0  0  0  0  0  0  0  0  0  0  0  0
 -138.9266   86.6687   63.3956 C   0  0  0  0  0  0  0  0  0  0  0  0
 -140.7117   87.7163   64.5899 C   0  0  0  0  0  0  0  0  0  0  0  0
 -143.0869   83.3508   65.6708 O   0  0  0  0  0  0  0  0  0  0  0  0
 -142.7103   83.9792   64.6821 C   0  0  0  0  0  0  0  0  0  0  0  0
 -140.7067   85.3334   64.2971 C   0  0  0  0  0  0  0  0  0  0  0  0
 -141.3000   86.4832   64.8080 C   0  0  0  0  0  0  0  0  0  0  0  0
 -139.5315   87.8089   63.8805 C   0  0  0  0  0  0  0  0  0  0  0  0
 -139.5037   85.4274   63.6049 C   0  0  0  0  0  0  0  0  0  0  0  0
 -143.6853   84.6134   63.7115 C   0  0  0  0  0  0  0  0  0  0  0  0
 -143.4909   86.1007   63.5344 C   0  0  0  0  0  0  0  0  0  0  0  0
 -145.3465   86.2903   61.8580 C   0  0  0  0  0  0  0  0  0  0  0  0
 -142.3002   88.1170   64.1533 N   0  0  0  0  0  0  0  0  0  0  0  0
 -142.5288   86.8006   64.2365 C   0  0  0  0  0  0  0  0  0  0  0  0
  1 11  1  0
  1 12  1  0
  2  3  2  0
  2 19  1  0
  3  4  1  0
  3  7  1  0
  4  5  2  0
  5  6  1  0
  6 18  2  0
  7 17  2  0
  7 18  1  0
  8 14  2  0
  8 15  1  0
  9 13  2  0
  9 14  1  0
 10 11  2  0
 16 11  1  6
 12 13  1  0
 12 15  2  0
 16 17  1  0
 17 20  1  0
 19 20  2  0
M  END
$$$$
