
     RDKit          3D

 20 22  0  0  0  0  0  0  0  0999 V2000
  -22.1641  -94.4909   -1.8337 N   0  0  0  0  0  0  0  0  0  0  0  0
  -21.5477  -89.8596    1.6777 C   0  0  0  0  0  0  0  0  0  0  0  0
  -22.8775  -90.2689    1.4425 C   0  0  0  0  0  0  0  0  0  0  0  0
  -23.9953  -89.4139    1.6021 C   0  0  0  0  0  0  0  0  0  0  0  0
  -25.2571  -89.8701    1.3622 C   0  0  0  0  0  0  0  0  0  0  0  0
  -25.4712  -91.1835    0.9703 C   0  0  0  0  0  0  0  0  0  0  0  0
  -23.0856  -91.6168    1.0356 C   0  0  0  0  0  0  0  0  0  0  0  0
  -20.3844  -96.1193   -4.6199 C   0  0  0  0  0  0  0  0  0  0  0  0
  -22.2590  -97.4627   -3.9938 C   0  0  0  0  0  0  0  0  0  0  0  0
  -20.1431  -94.4417   -0.7935 O   0  0  0  0  0  0  0  0  0  0  0  0
  -21.3642  -94.2924   -0.7677 C   0  0  0  0  0  0  0  0  0  0  0  0
  -21.8877  -95.3517   -2.9124 C   0  0  0  0  0  0  0  0  0  0  0  0
  -22.6490  -96.5046   -3.0751 C   0  0  0  0  0  0  0  0  0  0  0  0
  -21.1265  -97.2729   -4.7595 C   0  0  0  0  0  0  0  0  0  0  0  0
  -20.7614  -95.1515   -3.7040 C   0  0  0  0  0  0  0  0  0  0  0  0
  -22.1040  -93.9263    0.5027 C   0  0  0  0  0  0  0  0  0  0  0  0
  -21.9526  -92.4776    0.9021 C   0  0  0  0  0  0  0  0  0  0  0  0
  -24.4206  -92.0423    0.8052 C   0  0  0  0  0  0  0  0  0  0  0  0
  -20.4956  -90.6536    1.5477 N   0  0  0  0  0  0  0  0  0  0  0  0
  -20.7184  -91.9193    1.1726 C   0  0  0  0  0  0  0  0  0  0  0  0
  1 11  1  0
  1 12  1  0
  2  3  2  0
  2 19  1  0
  3  4  1  0
  3  7  1  0
  4  5  2  0
  5  6  1  0
  6 18  2  0
  7 17  2  0
  7 18  1  0
  8 14  2  0
  8 15  1  0
  9 13  2  0
  9 14  1  0
 10 11  2  0
 16 11  1  6
 12 13  1  0
 12 15  2  0
 16 17  1  0
 17 20  1  0
 19 20  2  0
M  END
$$$$
