
     RDKit          3D

 20 22  0  0  0  0  0  0  0  0999 V2000
  869.6251 1129.6740  844.9691 N   0  0  0  0  0  0  0  0  0  0  0  0
  871.0806 1134.1304  844.5120 C   0  0  0  0  0  0  0  0  0  0  0  0
  870.7238 1133.2555  843.4648 C   0  0  0  0  0  0  0  0  0  0  0  0
  870.0701 1133.6805  842.2825 C   0  0  0  0  0  0  0  0  0  0  0  0
  869.7482 1132.7843  841.3069 C   0  0  0  0  0  0  0  0  0  0  0  0
  870.0430 1131.4376  841.4598 C   0  0  0  0  0  0  0  0  0  0  0  0
  871.0351 1131.8760  843.6291 C   0  0  0  0  0  0  0  0  0  0  0  0
  869.8635 1132.6495  847.1299 C   0  0  0  0  0  0  0  0  0  0  0  0
  867.5601 1132.1245  846.7687 C   0  0  0  0  0  0  0  0  0  0  0  0
  870.9708 1127.8495  844.7933 O   0  0  0  0  0  0  0  0  0  0  0  0
  870.8266 1129.0656  844.9170 C   0  0  0  0  0  0  0  0  0  0  0  0
  869.2672 1130.6964  845.8672 C   0  0  0  0  0  0  0  0  0  0  0  0
  867.9214 1130.9926  846.0607 C   0  0  0  0  0  0  0  0  0  0  0  0
  868.5293 1132.9543  847.2961 C   0  0  0  0  0  0  0  0  0  0  0  0
  870.2407 1131.5210  846.4230 C   0  0  0  0  0  0  0  0  0  0  0  0
  872.0042 1130.0028  845.0897 C   0  0  0  0  0  0  0  0  0  0  0  0
  871.6718 1131.4541  844.8369 C   0  0  0  0  0  0  0  0  0  0  0  0
  870.6721 1130.9840  842.5851 C   0  0  0  0  0  0  0  0  0  0  0  0
  871.6772 1133.7432  845.6291 N   0  0  0  0  0  0  0  0  0  0  0  0
  871.9514 1132.4395  845.7638 C   0  0  0  0  0  0  0  0  0  0  0  0
  1 11  1  0
  1 12  1  0
  2  3  2  0
  2 19  1  0
  3  4  1  0
  3  7  1  0
  4  5  2  0
  5  6  1  0
  6 18  2  0
  7 17  2  0
  7 18  1  0
  8 14  2  0
  8 15  1  0
  9 13  2  0
  9 14  1  0
 10 11  2  0
 16 11  1  6
 12 13  1  0
 12 15  2  0
 16 17  1  0
 17 20  1  0
 19 20  2  0
M  END
$$$$
