
     RDKit          3D

 20 22  0  0  0  0  0  0  0  0999 V2000
 -135.8197  -59.5269  132.2247 N   0  0  0  0  0  0  0  0  0  0  0  0
 -139.5524  -62.4581  132.7798 C   0  0  0  0  0  0  0  0  0  0  0  0
 -138.1833  -62.4340  133.1210 C   0  0  0  0  0  0  0  0  0  0  0  0
 -137.4112  -63.6033  133.3266 C   0  0  0  0  0  0  0  0  0  0  0  0
 -136.0921  -63.5141  133.6582 C   0  0  0  0  0  0  0  0  0  0  0  0
 -135.4847  -62.2766  133.8135 C   0  0  0  0  0  0  0  0  0  0  0  0
 -137.5685  -61.1593  133.2726 C   0  0  0  0  0  0  0  0  0  0  0  0
 -134.5023  -62.4927  133.9711 C   0  0  0  0  0  0  0  0  0  0  0  0
 -133.1955  -60.5839  134.5704 C   0  0  0  0  0  0  0  0  0  0  0  0
 -136.0433  -57.2650  132.2733 O   0  0  0  0  0  0  0  0  0  0  0  0
 -136.4766  -58.3892  132.5238 C   0  0  0  0  0  0  0  0  0  0  0  0
 -135.1063  -60.3224  133.1406 C   0  0  0  0  0  0  0  0  0  0  0  0
 -134.0347  -59.7678  133.8328 C   0  0  0  0  0  0  0  0  0  0  0  0
 -133.4256  -61.9432  134.6342 C   0  0  0  0  0  0  0  0  0  0  0  0
 -135.3507  -61.6892  133.2280 C   0  0  0  0  0  0  0  0  0  0  0  0
 -137.7824  -58.6029  133.2616 C   0  0  0  0  0  0  0  0  0  0  0  0
 -138.3633  -59.9861  133.0875 C   0  0  0  0  0  0  0  0  0  0  0  0
 -136.1935  -61.1230  133.6252 C   0  0  0  0  0  0  0  0  0  0  0  0
 -140.2891  -61.3722  132.6007 N   0  0  0  0  0  0  0  0  0  0  0  0
 -139.6898  -60.1853  132.7578 C   0  0  0  0  0  0  0  0  0  0  0  0
  1 11  1  0
  1 12  1  0
  2  3  2  0
  2 19  1  0
  3  4  1  0
  3  7  1  0
  4  5  2  0
  5  6  1  0
  6 18  2  0
  7 17  2  0
  7 18  1  0
  8 14  2  0
  8 15  1  0
  9 13  2  0
  9 14  1  0
 10 11  2  0
 16 11  1  6
 12 13  1  0
 12 15  2  0
 16 17  1  0
 17 20  1  0
 19 20  2  0
M  END
$$$$
