
     RDKit          3D

 20 22  0  0  0  0  0  0  0  0999 V2000
   98.7372   -9.5966   12.5410 N   0  0  0  0  0  0  0  0  0  0  0  0
  100.5580  -10.4914    8.1515 C   0  0  0  0  0  0  0  0  0  0  0  0
   99.2898  -10.9304    8.5880 C   0  0  0  0  0  0  0  0  0  0  0  0
   98.1630  -11.0261    7.7354 C   0  0  0  0  0  0  0  0  0  0  0  0
   96.9625  -11.4546    8.2183 C   0  0  0  0  0  0  0  0  0  0  0  0
   96.8187  -11.7922    9.5561 C   0  0  0  0  0  0  0  0  0  0  0  0
   99.1545  -11.2793    9.9612 C   0  0  0  0  0  0  0  0  0  0  0  0
   96.4749   -9.1570    9.6652 C   0  0  0  0  0  0  0  0  0  0  0  0
   95.2137   -8.9920   11.6884 C   0  0  0  0  0  0  0  0  0  0  0  0
   98.4648  -11.3659   13.9426 O   0  0  0  0  0  0  0  0  0  0  0  0
   99.0417  -10.8267   12.9988 C   0  0  0  0  0  0  0  0  0  0  0  0
   97.5969   -9.2661   11.7850 C   0  0  0  0  0  0  0  0  0  0  0  0
   96.3755   -9.1049   12.4311 C   0  0  0  0  0  0  0  0  0  0  0  0
   95.2631   -9.0241   10.3094 C   0  0  0  0  0  0  0  0  0  0  0  0
   97.6462   -9.2719   10.3948 C   0  0  0  0  0  0  0  0  0  0  0  0
  100.2108  -11.4799   12.2903 C   0  0  0  0  0  0  0  0  0  0  0  0
  100.2918  -11.1548   10.8176 C   0  0  0  0  0  0  0  0  0  0  0  0
   97.8805  -11.7134   10.4136 C   0  0  0  0  0  0  0  0  0  0  0  0
  101.6151  -10.3821    8.9419 N   0  0  0  0  0  0  0  0  0  0  0  0
  101.4598  -10.7077   10.2312 C   0  0  0  0  0  0  0  0  0  0  0  0
  1 11  1  0
  1 12  1  0
  2  3  2  0
  2 19  1  0
  3  4  1  0
  3  7  1  0
  4  5  2  0
  5  6  1  0
  6 18  2  0
  7 17  2  0
  7 18  1  0
  8 14  2  0
  8 15  1  0
  9 13  2  0
  9 14  1  0
 10 11  2  0
 16 11  1  6
 12 13  1  0
 12 15  2  0
 16 17  1  0
 17 20  1  0
 19 20  2  0
M  END
$$$$
