
     RDKit          3D

 20 22  0  0  0  0  0  0  0  0999 V2000
   42.0739  117.4375  -76.7750 N   0  0  0  0  0  0  0  0  0  0  0  0
   39.7553  112.3423  -73.6514 C   0  0  0  0  0  0  0  0  0  0  0  0
   40.5752  113.3627  -73.1242 C   0  0  0  0  0  0  0  0  0  0  0  0
   41.1000  113.3385  -71.8090 C   0  0  0  0  0  0  0  0  0  0  0  0
   41.8843  114.3573  -71.3564 C   0  0  0  0  0  0  0  0  0  0  0  0
   42.1721  115.4430  -72.1707 C   0  0  0  0  0  0  0  0  0  0  0  0
   40.8688  114.4693  -73.9697 C   0  0  0  0  0  0  0  0  0  0  0  0
   38.7929  118.2832  -78.2250 C   0  0  0  0  0  0  0  0  0  0  0  0
   40.3906  119.9347  -78.8817 C   0  0  0  0  0  0  0  0  0  0  0  0
   42.7345  115.9094  -75.2267 O   0  0  0  0  0  0  0  0  0  0  0  0
   41.8885  116.3468  -76.0059 C   0  0  0  0  0  0  0  0  0  0  0  0
   41.0951  118.0386  -77.5884 C   0  0  0  0  0  0  0  0  0  0  0  0
   41.3971  119.2219  -78.2546 C   0  0  0  0  0  0  0  0  0  0  0  0
   39.0914  119.4693  -78.8615 C   0  0  0  0  0  0  0  0  0  0  0  0
   39.7892  117.5590  -77.5921 C   0  0  0  0  0  0  0  0  0  0  0  0
   40.5599  115.6524  -76.2249 C   0  0  0  0  0  0  0  0  0  0  0  0
   40.3132  114.4953  -75.2862 C   0  0  0  0  0  0  0  0  0  0  0  0
   41.6852  115.5066  -73.4464 C   0  0  0  0  0  0  0  0  0  0  0  0
   39.2453  112.3609  -74.8735 N   0  0  0  0  0  0  0  0  0  0  0  0
   39.5286  113.4169  -75.6461 C   0  0  0  0  0  0  0  0  0  0  0  0
  1 11  1  0
  1 12  1  0
  2  3  2  0
  2 19  1  0
  3  4  1  0
  3  7  1  0
  4  5  2  0
  5  6  1  0
  6 18  2  0
  7 17  2  0
  7 18  1  0
  8 14  2  0
  8 15  1  0
  9 13  2  0
  9 14  1  0
 10 11  2  0
 16 11  1  6
 12 13  1  0
 12 15  2  0
 16 17  1  0
 17 20  1  0
 19 20  2  0
M  END
$$$$
