
     RDKit          3D

 20 22  0  0  0  0  0  0  0  0999 V2000
   60.4550 -152.6397  173.9543 N   0  0  0  0  0  0  0  0  0  0  0  0
   58.4855 -152.8885  179.8052 C   0  0  0  0  0  0  0  0  0  0  0  0
   58.5011 -153.8421  178.7650 C   0  0  0  0  0  0  0  0  0  0  0  0
   58.1160 -155.1935  178.9415 C   0  0  0  0  0  0  0  0  0  0  0  0
   58.1560 -156.0682  177.8969 C   0  0  0  0  0  0  0  0  0  0  0  0
   58.5872 -155.6545  176.6449 C   0  0  0  0  0  0  0  0  0  0  0  0
   58.9400 -153.4060  177.4832 C   0  0  0  0  0  0  0  0  0  0  0  0
   64.0675 -153.3151  173.6790 C   0  0  0  0  0  0  0  0  0  0  0  0
   63.6118 -152.3386  175.8120 C   0  0  0  0  0  0  0  0  0  0  0  0
   58.2872 -152.7371  174.6323 O   0  0  0  0  0  0  0  0  0  0  0  0
   59.4493 -152.3738  174.8106 C   0  0  0  0  0  0  0  0  0  0  0  0
   61.8028 -152.8306  174.3122 C   0  0  0  0  0  0  0  0  0  0  0  0
   62.2560 -152.3506  175.5367 C   0  0  0  0  0  0  0  0  0  0  0  0
   64.5150 -152.8139  174.8830 C   0  0  0  0  0  0  0  0  0  0  0  0
   62.7137 -153.3328  173.3886 C   0  0  0  0  0  0  0  0  0  0  0  0
   59.8544 -151.5247  175.9980 C   0  0  0  0  0  0  0  0  0  0  0  0
   59.3501 -152.0464  177.3227 C   0  0  0  0  0  0  0  0  0  0  0  0
   58.9687 -154.3593  176.4312 C   0  0  0  0  0  0  0  0  0  0  0  0
   58.8584 -151.6265  179.6568 N   0  0  0  0  0  0  0  0  0  0  0  0
   59.2757 -151.2431  178.4439 C   0  0  0  0  0  0  0  0  0  0  0  0
  1 11  1  0
  1 12  1  0
  2  3  2  0
  2 19  1  0
  3  4  1  0
  3  7  1  0
  4  5  2  0
  5  6  1  0
  6 18  2  0
  7 17  2  0
  7 18  1  0
  8 14  2  0
  8 15  1  0
  9 13  2  0
  9 14  1  0
 10 11  2  0
 16 11  1  6
 12 13  1  0
 12 15  2  0
 16 17  1  0
 17 20  1  0
 19 20  2  0
M  END
$$$$
