
     RDKit          3D

 20 22  0  0  0  0  0  0  0  0999 V2000
   -4.0466  156.3197   59.0323 N   0  0  0  0  0  0  0  0  0  0  0  0
   -3.9590  161.8760   58.4066 C   0  0  0  0  0  0  0  0  0  0  0  0
   -4.9096  161.3107   57.5301 C   0  0  0  0  0  0  0  0  0  0  0  0
   -5.3458  161.9443   56.3409 C   0  0  0  0  0  0  0  0  0  0  0  0
   -6.2703  161.3477   55.5363 C   0  0  0  0  0  0  0  0  0  0  0  0
   -6.8108  160.1155   55.8738 C   0  0  0  0  0  0  0  0  0  0  0  0
   -5.4538  160.0439   57.8829 C   0  0  0  0  0  0  0  0  0  0  0  0
   -2.6620  153.6344   61.1427 C   0  0  0  0  0  0  0  0  0  0  0  0
   -4.5505  154.6020   62.2421 C   0  0  0  0  0  0  0  0  0  0  0  0
   -5.8342  156.6232   57.6606 O   0  0  0  0  0  0  0  0  0  0  0  0
   -5.1870  156.9335   58.6601 C   0  0  0  0  0  0  0  0  0  0  0  0
   -3.9355  155.3481   60.0446 C   0  0  0  0  0  0  0  0  0  0  0  0
   -4.7836  155.4125   61.1453 C   0  0  0  0  0  0  0  0  0  0  0  0
   -3.4889  153.7199   62.2426 C   0  0  0  0  0  0  0  0  0  0  0  0
   -2.8821  154.4397   60.0378 C   0  0  0  0  0  0  0  0  0  0  0  0
   -5.5832  158.0959   59.5472 C   0  0  0  0  0  0  0  0  0  0  0  0
   -5.0251  159.4255   59.0979 C   0  0  0  0  0  0  0  0  0  0  0  0
   -6.4183  159.4700   57.0130 C   0  0  0  0  0  0  0  0  0  0  0  0
   -3.5550  161.3013   59.5294 N   0  0  0  0  0  0  0  0  0  0  0  0
   -4.0884  160.1144   59.8436 C   0  0  0  0  0  0  0  0  0  0  0  0
  1 11  1  0
  1 12  1  0
  2  3  2  0
  2 19  1  0
  3  4  1  0
  3  7  1  0
  4  5  2  0
  5  6  1  0
  6 18  2  0
  7 17  2  0
  7 18  1  0
  8 14  2  0
  8 15  1  0
  9 13  2  0
  9 14  1  0
 10 11  2  0
 16 11  1  6
 12 13  1  0
 12 15  2  0
 16 17  1  0
 17 20  1  0
 19 20  2  0
M  END
$$$$
