
     RDKit          3D

 20 22  0  0  0  0  0  0  0  0999 V2000
  705.1070 -167.9342   72.7474 N   0  0  0  0  0  0  0  0  0  0  0  0
  703.0626 -172.1639   72.1473 C   0  0  0  0  0  0  0  0  0  0  0  0
  703.7500 -172.6750   73.2687 C   0  0  0  0  0  0  0  0  0  0  0  0
  703.3923 -173.8815   73.9182 C   0  0  0  0  0  0  0  0  0  0  0  0
  704.0947 -174.3213   75.0004 C   0  0  0  0  0  0  0  0  0  0  0  0
  705.1643 -173.5888   75.4939 C   0  0  0  0  0  0  0  0  0  0  0  0
  704.8494 -171.9185   73.7635 C   0  0  0  0  0  0  0  0  0  0  0  0
  703.1885 -164.8831   71.9776 C   0  0  0  0  0  0  0  0  0  0  0  0
  702.1962 -165.9816   73.8536 C   0  0  0  0  0  0  0  0  0  0  0  0
  706.4955 -167.6023   74.5168 O   0  0  0  0  0  0  0  0  0  0  0  0
  705.9768 -168.3502   73.6886 C   0  0  0  0  0  0  0  0  0  0  0  0
  704.2098 -166.8579   72.8836 C   0  0  0  0  0  0  0  0  0  0  0  0
  703.2087 -166.9245   73.8470 C   0  0  0  0  0  0  0  0  0  0  0  0
  702.1835 -164.9674   72.9174 C   0  0  0  0  0  0  0  0  0  0  0  0
  704.2088 -165.8197   71.9577 C   0  0  0  0  0  0  0  0  0  0  0  0
  706.3212 -169.8232   73.6065 C   0  0  0  0  0  0  0  0  0  0  0  0
  705.1857 -170.6898   73.1158 C   0  0  0  0  0  0  0  0  0  0  0  0
  705.5428 -172.4183   74.8975 C   0  0  0  0  0  0  0  0  0  0  0  0
  703.3772 -171.0291   71.5411 N   0  0  0  0  0  0  0  0  0  0  0  0
  704.4093 -170.3315   72.0310 C   0  0  0  0  0  0  0  0  0  0  0  0
  1 11  1  0
  1 12  1  0
  2  3  2  0
  2 19  1  0
  3  4  1  0
  3  7  1  0
  4  5  2  0
  5  6  1  0
  6 18  2  0
  7 17  2  0
  7 18  1  0
  8 14  2  0
  8 15  1  0
  9 13  2  0
  9 14  1  0
 10 11  2  0
 16 11  1  6
 12 13  1  0
 12 15  2  0
 16 17  1  0
 17 20  1  0
 19 20  2  0
M  END
$$$$
