
     RDKit          3D

 20 22  0  0  0  0  0  0  0  0999 V2000
   95.8482  -12.0591  -39.3726 N   0  0  0  0  0  0  0  0  0  0  0  0
   93.6723  -17.3103  -39.1257 C   0  0  0  0  0  0  0  0  0  0  0  0
   93.3868  -16.0224  -38.6244 C   0  0  0  0  0  0  0  0  0  0  0  0
   92.3396  -15.7579  -37.7084 C   0  0  0  0  0  0  0  0  0  0  0  0
   92.1116  -14.4899  -37.2630 C   0  0  0  0  0  0  0  0  0  0  0  0
   92.8923  -13.4333  -37.7087 C   0  0  0  0  0  0  0  0  0  0  0  0
   94.1971  -14.9463  -39.0839 C   0  0  0  0  0  0  0  0  0  0  0  0
   99.4834  -12.1631  -38.7758 C   0  0  0  0  0  0  0  0  0  0  0  0
   98.3539  -11.8640  -36.6911 C   0  0  0  0  0  0  0  0  0  0  0  0
   94.7103  -12.3141  -41.3243 O   0  0  0  0  0  0  0  0  0  0  0  0
   95.4985  -12.7407  -40.4811 C   0  0  0  0  0  0  0  0  0  0  0  0
   97.0835  -12.1634  -38.7061 C   0  0  0  0  0  0  0  0  0  0  0  0
   97.1310  -11.9764  -37.3284 C   0  0  0  0  0  0  0  0  0  0  0  0
   99.5264  -11.9512  -37.4140 C   0  0  0  0  0  0  0  0  0  0  0  0
   98.2672  -12.2768  -39.4280 C   0  0  0  0  0  0  0  0  0  0  0  0
   96.1123  -14.1223  -40.5786 C   0  0  0  0  0  0  0  0  0  0  0  0
   95.2347  -15.2211  -40.0275 C   0  0  0  0  0  0  0  0  0  0  0  0
   93.9127  -13.6445  -38.5934 C   0  0  0  0  0  0  0  0  0  0  0  0
   94.6380  -17.5682  -39.9946 N   0  0  0  0  0  0  0  0  0  0  0  0
   95.3803  -16.5379  -40.4184 C   0  0  0  0  0  0  0  0  0  0  0  0
  1 11  1  0
  1 12  1  0
  2  3  2  0
  2 19  1  0
  3  4  1  0
  3  7  1  0
  4  5  2  0
  5  6  1  0
  6 18  2  0
  7 17  2  0
  7 18  1  0
  8 14  2  0
  8 15  1  0
  9 13  2  0
  9 14  1  0
 10 11  2  0
 16 11  1  6
 12 13  1  0
 12 15  2  0
 16 17  1  0
 17 20  1  0
 19 20  2  0
M  END
$$$$
