
     RDKit          3D

 20 22  0  0  0  0  0  0  0  0999 V2000
   39.3313  -61.1568   82.5558 N   0  0  0  0  0  0  0  0  0  0  0  0
   39.1766  -56.0163   85.7825 C   0  0  0  0  0  0  0  0  0  0  0  0
   39.5283  -57.0294   86.6998 C   0  0  0  0  0  0  0  0  0  0  0  0
   40.0987  -56.7668   87.9692 C   0  0  0  0  0  0  0  0  0  0  0  0
   40.4201  -57.7902   88.8103 C   0  0  0  0  0  0  0  0  0  0  0  0
   40.2067  -59.1081   88.4334 C   0  0  0  0  0  0  0  0  0  0  0  0
   39.3003  -58.3778   86.3054 C   0  0  0  0  0  0  0  0  0  0  0  0
   42.0026  -62.5970   84.6466 C   0  0  0  0  0  0  0  0  0  0  0  0
   42.9568  -61.7549   82.6238 C   0  0  0  0  0  0  0  0  0  0  0  0
   37.9096  -59.4049   82.2755 O   0  0  0  0  0  0  0  0  0  0  0  0
   38.5317  -60.1718   83.0096 C   0  0  0  0  0  0  0  0  0  0  0  0
   40.6127  -61.4616   83.0517 C   0  0  0  0  0  0  0  0  0  0  0  0
   41.7224  -61.2654   82.2359 C   0  0  0  0  0  0  0  0  0  0  0  0
   43.0949  -62.4241   83.8231 C   0  0  0  0  0  0  0  0  0  0  0  0
   40.7603  -62.1136   84.2717 C   0  0  0  0  0  0  0  0  0  0  0  0
   38.5073  -60.0390   84.5187 C   0  0  0  0  0  0  0  0  0  0  0  0
   38.7476  -58.6320   85.0123 C   0  0  0  0  0  0  0  0  0  0  0  0
   39.6591  -59.4059   87.2168 C   0  0  0  0  0  0  0  0  0  0  0  0
   38.6577  -56.2493   84.5865 N   0  0  0  0  0  0  0  0  0  0  0  0
   38.4613  -57.5262   84.2355 C   0  0  0  0  0  0  0  0  0  0  0  0
  1 11  1  0
  1 12  1  0
  2  3  2  0
  2 19  1  0
  3  4  1  0
  3  7  1  0
  4  5  2  0
  5  6  1  0
  6 18  2  0
  7 17  2  0
  7 18  1  0
  8 14  2  0
  8 15  1  0
  9 13  2  0
  9 14  1  0
 10 11  2  0
 16 11  1  6
 12 13  1  0
 12 15  2  0
 16 17  1  0
 17 20  1  0
 19 20  2  0
M  END
$$$$
