
     RDKit          3D

 20 22  0  0  0  0  0  0  0  0999 V2000
  -35.9055  -30.0576   32.2623 N   0  0  0  0  0  0  0  0  0  0  0  0
  -40.2825  -28.6641   29.2139 C   0  0  0  0  0  0  0  0  0  0  0  0
  -40.5830  -27.7627   30.2573 C   0  0  0  0  0  0  0  0  0  0  0  0
  -41.8090  -27.0597   30.3502 C   0  0  0  0  0  0  0  0  0  0  0  0
  -42.0385  -26.1991   31.3820 C   0  0  0  0  0  0  0  0  0  0  0  0
  -41.0708  -25.9857   32.3528 C   0  0  0  0  0  0  0  0  0  0  0  0
  -39.5855  -27.5552   31.2511 C   0  0  0  0  0  0  0  0  0  0  0  0
  -33.2329  -32.5436   31.7535 C   0  0  0  0  0  0  0  0  0  0  0  0
  -35.1252  -33.1418   30.4221 C   0  0  0  0  0  0  0  0  0  0  0  0
  -35.0340  -28.2618   31.1740 O   0  0  0  0  0  0  0  0  0  0  0  0
  -35.9553  -28.7968   31.7898 C   0  0  0  0  0  0  0  0  0  0  0  0
  -35.1586  -31.1105   31.7015 C   0  0  0  0  0  0  0  0  0  0  0  0
  -35.7767  -31.9860   30.8146 C   0  0  0  0  0  0  0  0  0  0  0  0
  -33.8593  -33.4223   30.8952 C   0  0  0  0  0  0  0  0  0  0  0  0
  -33.8724  -31.3832   32.1561 C   0  0  0  0  0  0  0  0  0  0  0  0
  -37.2301  -28.0549   32.1361 C   0  0  0  0  0  0  0  0  0  0  0  0
  -38.3426  -28.2508   31.1336 C   0  0  0  0  0  0  0  0  0  0  0  0
  -39.8733  -26.6431   32.3006 C   0  0  0  0  0  0  0  0  0  0  0  0
  -39.1342  -29.3151   29.1070 N   0  0  0  0  0  0  0  0  0  0  0  0
  -38.2087  -29.0960   30.0492 C   0  0  0  0  0  0  0  0  0  0  0  0
  1 11  1  0
  1 12  1  0
  2  3  2  0
  2 19  1  0
  3  4  1  0
  3  7  1  0
  4  5  2  0
  5  6  1  0
  6 18  2  0
  7 17  2  0
  7 18  1  0
  8 14  2  0
  8 15  1  0
  9 13  2  0
  9 14  1  0
 10 11  2  0
 16 11  1  6
 12 13  1  0
 12 15  2  0
 16 17  1  0
 17 20  1  0
 19 20  2  0
M  END
$$$$
