
     RDKit          3D

 20 22  0  0  0  0  0  0  0  0999 V2000
  -94.6793 -177.4332  126.3976 N   0  0  0  0  0  0  0  0  0  0  0  0
  -95.0637 -178.6832  132.1642 C   0  0  0  0  0  0  0  0  0  0  0  0
  -93.6709 -178.6806  131.9378 C   0  0  0  0  0  0  0  0  0  0  0  0
  -92.7131 -178.5875  132.9770 C   0  0  0  0  0  0  0  0  0  0  0  0
  -91.3799 -178.5868  132.6933 C   0  0  0  0  0  0  0  0  0  0  0  0
  -90.9365 -178.6640  131.3811 C   0  0  0  0  0  0  0  0  0  0  0  0
  -93.2265 -178.7656  130.5883 C   0  0  0  0  0  0  0  0  0  0  0  0
  -95.6919 -174.1574  125.0464 C   0  0  0  0  0  0  0  0  0  0  0  0
  -97.6281 -175.3117  125.8402 C   0  0  0  0  0  0  0  0  0  0  0  0
  -92.9891 -176.6632  127.7088 O   0  0  0  0  0  0  0  0  0  0  0  0
  -93.7874 -177.5477  127.4010 C   0  0  0  0  0  0  0  0  0  0  0  0
  -95.4543 -176.2914  126.1208 C   0  0  0  0  0  0  0  0  0  0  0  0
  -96.8322 -176.3432  126.3052 C   0  0  0  0  0  0  0  0  0  0  0  0
  -97.0596 -174.2249  125.2073 C   0  0  0  0  0  0  0  0  0  0  0  0
  -94.8823 -175.1826  125.5057 C   0  0  0  0  0  0  0  0  0  0  0  0
  -93.8009 -178.8962  128.0914 C   0  0  0  0  0  0  0  0  0  0  0  0
  -94.2022 -178.8338  129.5462 C   0  0  0  0  0  0  0  0  0  0  0  0
  -91.8271 -178.7544  130.3480 C   0  0  0  0  0  0  0  0  0  0  0  0
  -95.9694 -178.7535  131.2005 N   0  0  0  0  0  0  0  0  0  0  0  0
  -95.5264 -178.8235  129.9391 C   0  0  0  0  0  0  0  0  0  0  0  0
  1 11  1  0
  1 12  1  0
  2  3  2  0
  2 19  1  0
  3  4  1  0
  3  7  1  0
  4  5  2  0
  5  6  1  0
  6 18  2  0
  7 17  2  0
  7 18  1  0
  8 14  2  0
  8 15  1  0
  9 13  2  0
  9 14  1  0
 10 11  2  0
 16 11  1  6
 12 13  1  0
 12 15  2  0
 16 17  1  0
 17 20  1  0
 19 20  2  0
M  END
$$$$
