
     RDKit          3D

 20 22  0  0  0  0  0  0  0  0999 V2000
  -52.3537  -19.1270  142.9172 N   0  0  0  0  0  0  0  0  0  0  0  0
  -55.7287  -16.3126  146.6730 C   0  0  0  0  0  0  0  0  0  0  0  0
  -56.0088  -17.6414  147.0566 C   0  0  0  0  0  0  0  0  0  0  0  0
  -57.0877  -17.9968  147.9025 C   0  0  0  0  0  0  0  0  0  0  0  0
  -57.3043  -19.2996  148.2400 C   0  0  0  0  0  0  0  0  0  0  0  0
  -56.4646  -20.2998  147.7721 C   0  0  0  0  0  0  0  0  0  0  0  0
  -55.1443  -18.6604  146.5668 C   0  0  0  0  0  0  0  0  0  0  0  0
  -51.0960  -15.6662  142.7672 C   0  0  0  0  0  0  0  0  0  0  0  0
  -52.6552  -16.0125  140.9895 C   0  0  0  0  0  0  0  0  0  0  0  0
  -54.2393  -20.3190  143.3560 O   0  0  0  0  0  0  0  0  0  0  0  0
  -53.2772  -19.6565  143.7432 C   0  0  0  0  0  0  0  0  0  0  0  0
  -52.2465  -17.7651  142.5787 C   0  0  0  0  0  0  0  0  0  0  0  0
  -52.9170  -17.2880  141.4570 C   0  0  0  0  0  0  0  0  0  0  0  0
  -51.7428  -15.2064  141.6396 C   0  0  0  0  0  0  0  0  0  0  0  0
  -51.3468  -16.9408  143.2467 C   0  0  0  0  0  0  0  0  0  0  0  0
  -53.0712  -19.3139  145.2045 C   0  0  0  0  0  0  0  0  0  0  0  0
  -54.0441  -18.2875  145.7345 C   0  0  0  0  0  0  0  0  0  0  0  0
  -55.4110  -20.0003  146.9541 C   0  0  0  0  0  0  0  0  0  0  0  0
  -54.7140  -15.9655  145.8960 N   0  0  0  0  0  0  0  0  0  0  0  0
  -53.9101  -16.9413  145.4556 C   0  0  0  0  0  0  0  0  0  0  0  0
  1 11  1  0
  1 12  1  0
  2  3  2  0
  2 19  1  0
  3  4  1  0
  3  7  1  0
  4  5  2  0
  5  6  1  0
  6 18  2  0
  7 17  2  0
  7 18  1  0
  8 14  2  0
  8 15  1  0
  9 13  2  0
  9 14  1  0
 10 11  2  0
 16 11  1  6
 12 13  1  0
 12 15  2  0
 16 17  1  0
 17 20  1  0
 19 20  2  0
M  END
$$$$
