
     RDKit          3D

 20 22  0  0  0  0  0  0  0  0999 V2000
  -14.8965  -56.7876   11.0314 N   0  0  0  0  0  0  0  0  0  0  0  0
  -20.2022  -58.5588    8.3377 C   0  0  0  0  0  0  0  0  0  0  0  0
  -19.5092  -59.0872    9.4476 C   0  0  0  0  0  0  0  0  0  0  0  0
  -19.8837  -60.2871   10.1002 C   0  0  0  0  0  0  0  0  0  0  0  0
  -19.1748  -60.7445   11.1709 C   0  0  0  0  0  0  0  0  0  0  0  0
  -18.0818  -60.0367   11.6493 C   0  0  0  0  0  0  0  0  0  0  0  0
  -18.3862  -58.3561    9.9271 C   0  0  0  0  0  0  0  0  0  0  0  0
  -14.2932  -53.3860   12.3149 C   0  0  0  0  0  0  0  0  0  0  0  0
  -12.2045  -54.3811   11.7161 C   0  0  0  0  0  0  0  0  0  0  0  0
  -15.1714  -57.8385    9.0342 O   0  0  0  0  0  0  0  0  0  0  0  0
  -15.5767  -57.0661    9.9021 C   0  0  0  0  0  0  0  0  0  0  0  0
  -14.2521  -55.5693   11.3166 C   0  0  0  0  0  0  0  0  0  0  0  0
  -12.8650  -55.4984   11.2371 C   0  0  0  0  0  0  0  0  0  0  0  0
  -12.9166  -53.3307   12.2589 C   0  0  0  0  0  0  0  0  0  0  0  0
  -14.9685  -54.4980   11.8404 C   0  0  0  0  0  0  0  0  0  0  0  0
  -16.8711  -56.2934    9.7516 C   0  0  0  0  0  0  0  0  0  0  0  0
  -18.0327  -57.1337    9.2765 C   0  0  0  0  0  0  0  0  0  0  0  0
  -17.6870  -58.8736   11.0494 C   0  0  0  0  0  0  0  0  0  0  0  0
  -19.8721  -57.4299    7.7288 N   0  0  0  0  0  0  0  0  0  0  0  0
  -18.8175  -56.7561    8.2044 C   0  0  0  0  0  0  0  0  0  0  0  0
  1 11  1  0
  1 12  1  0
  2  3  2  0
  2 19  1  0
  3  4  1  0
  3  7  1  0
  4  5  2  0
  5  6  1  0
  6 18  2  0
  7 17  2  0
  7 18  1  0
  8 14  2  0
  8 15  1  0
  9 13  2  0
  9 14  1  0
 10 11  2  0
 16 11  1  6
 12 13  1  0
 12 15  2  0
 16 17  1  0
 17 20  1  0
 19 20  2  0
M  END
$$$$
