
     RDKit          3D

 20 22  0  0  0  0  0  0  0  0999 V2000
  -66.0677    2.9155  -66.9960 N   0  0  0  0  0  0  0  0  0  0  0  0
  -69.7969    4.4465  -63.2586 C   0  0  0  0  0  0  0  0  0  0  0  0
  -68.5005    4.7712  -63.7115 C   0  0  0  0  0  0  0  0  0  0  0  0
  -67.7420    5.8494  -63.1937 C   0  0  0  0  0  0  0  0  0  0  0  0
  -66.4949    6.1145  -63.6758 C   0  0  0  0  0  0  0  0  0  0  0  0
  -65.9507    5.3417  -64.6912 C   0  0  0  0  0  0  0  0  0  0  0  0
  -67.9494    3.9687  -64.7497 C   0  0  0  0  0  0  0  0  0  0  0  0
  -66.1998    2.9604  -70.6786 C   0  0  0  0  0  0  0  0  0  0  0  0
  -67.4084    4.8379  -69.8269 C   0  0  0  0  0  0  0  0  0  0  0  0
  -66.1497    0.8708  -66.0053 O   0  0  0  0  0  0  0  0  0  0  0  0
  -66.7146    1.8794  -66.4272 C   0  0  0  0  0  0  0  0  0  0  0  0
  -66.2572    3.3717  -68.3139 C   0  0  0  0  0  0  0  0  0  0  0  0
  -67.0375    4.5015  -68.5371 C   0  0  0  0  0  0  0  0  0  0  0  0
  -66.9954    4.0658  -70.8938 C   0  0  0  0  0  0  0  0  0  0  0  0
  -65.8212    2.6105  -69.3935 C   0  0  0  0  0  0  0  0  0  0  0  0
  -68.2222    2.0272  -66.4041 C   0  0  0  0  0  0  0  0  0  0  0  0
  -68.7336    2.8991  -65.2819 C   0  0  0  0  0  0  0  0  0  0  0  0
  -66.6491    4.2922  -65.2198 C   0  0  0  0  0  0  0  0  0  0  0  0
  -70.5226    3.4513  -63.7455 N   0  0  0  0  0  0  0  0  0  0  0  0
  -69.9856    2.7169  -64.7276 C   0  0  0  0  0  0  0  0  0  0  0  0
  1 11  1  0
  1 12  1  0
  2  3  2  0
  2 19  1  0
  3  4  1  0
  3  7  1  0
  4  5  2  0
  5  6  1  0
  6 18  2  0
  7 17  2  0
  7 18  1  0
  8 14  2  0
  8 15  1  0
  9 13  2  0
  9 14  1  0
 10 11  2  0
 16 11  1  6
 12 13  1  0
 12 15  2  0
 16 17  1  0
 17 20  1  0
 19 20  2  0
M  END
$$$$
