
     RDKit          3D

 20 22  0  0  0  0  0  0  0  0999 V2000
  -55.2665  -31.7741  -55.9202 N   0  0  0  0  0  0  0  0  0  0  0  0
  -55.8552  -27.8810  -53.2301 C   0  0  0  0  0  0  0  0  0  0  0  0
  -54.8130  -28.8145  -53.4136 C   0  0  0  0  0  0  0  0  0  0  0  0
  -53.4413  -28.4844  -53.2905 C   0  0  0  0  0  0  0  0  0  0  0  0
  -52.4801  -29.4315  -53.4834 C   0  0  0  0  0  0  0  0  0  0  0  0
  -52.8269  -30.7327  -53.8168 C   0  0  0  0  0  0  0  0  0  0  0  0
  -55.1799  -30.1478  -53.7502 C   0  0  0  0  0  0  0  0  0  0  0  0
  -56.7675  -29.2278  -58.1214 C   0  0  0  0  0  0  0  0  0  0  0  0
  -56.1480  -28.2085  -56.0506 C   0  0  0  0  0  0  0  0  0  0  0  0
  -56.0534  -33.8104  -55.2852 O   0  0  0  0  0  0  0  0  0  0  0  0
  -56.0606  -32.5834  -55.1922 C   0  0  0  0  0  0  0  0  0  0  0  0
  -55.6380  -30.5214  -56.4435 C   0  0  0  0  0  0  0  0  0  0  0  0
  -55.5890  -29.3995  -55.6225 C   0  0  0  0  0  0  0  0  0  0  0  0
  -56.7407  -28.1251  -57.2942 C   0  0  0  0  0  0  0  0  0  0  0  0
  -56.2130  -30.4270  -57.7066 C   0  0  0  0  0  0  0  0  0  0  0  0
  -57.0238  -31.8506  -54.2809 C   0  0  0  0  0  0  0  0  0  0  0  0
  -56.5660  -30.4635  -53.8966 C   0  0  0  0  0  0  0  0  0  0  0  0
  -54.1390  -31.0935  -53.9466 C   0  0  0  0  0  0  0  0  0  0  0  0
  -57.1407  -28.1731  -53.3582 N   0  0  0  0  0  0  0  0  0  0  0  0
  -57.4595  -29.4318  -53.6841 C   0  0  0  0  0  0  0  0  0  0  0  0
  1 11  1  0
  1 12  1  0
  2  3  2  0
  2 19  1  0
  3  4  1  0
  3  7  1  0
  4  5  2  0
  5  6  1  0
  6 18  2  0
  7 17  2  0
  7 18  1  0
  8 14  2  0
  8 15  1  0
  9 13  2  0
  9 14  1  0
 10 11  2  0
 16 11  1  6
 12 13  1  0
 12 15  2  0
 16 17  1  0
 17 20  1  0
 19 20  2  0
M  END
$$$$
