
     RDKit          3D

 20 22  0  0  0  0  0  0  0  0999 V2000
  249.7460  -59.5118  -26.7033 N   0  0  0  0  0  0  0  0  0  0  0  0
  254.1851  -55.6029  -27.6757 C   0  0  0  0  0  0  0  0  0  0  0  0
  252.9944  -54.9412  -27.3071 C   0  0  0  0  0  0  0  0  0  0  0  0
  252.9657  -53.6308  -26.7708 C   0  0  0  0  0  0  0  0  0  0  0  0
  251.7822  -53.0464  -26.4306 C   0  0  0  0  0  0  0  0  0  0  0  0
  250.5851  -53.7290  -26.5909 C   0  0  0  0  0  0  0  0  0  0  0  0
  251.7715  -55.6485  -27.4805 C   0  0  0  0  0  0  0  0  0  0  0  0
  248.9599  -61.8528  -23.9678 C   0  0  0  0  0  0  0  0  0  0  0  0
  251.1395  -60.9381  -23.6162 C   0  0  0  0  0  0  0  0  0  0  0  0
  249.4596  -57.3418  -26.0885 O   0  0  0  0  0  0  0  0  0  0  0  0
  249.8841  -58.1831  -26.8798 C   0  0  0  0  0  0  0  0  0  0  0  0
  249.8110  -60.1821  -25.4674 C   0  0  0  0  0  0  0  0  0  0  0  0
  250.9825  -60.1190  -24.7200 C   0  0  0  0  0  0  0  0  0  0  0  0
  250.1332  -61.8067  -23.2450 C   0  0  0  0  0  0  0  0  0  0  0  0
  248.7883  -61.0399  -25.0755 C   0  0  0  0  0  0  0  0  0  0  0  0
  250.5578  -57.7974  -28.1808 C   0  0  0  0  0  0  0  0  0  0  0  0
  251.8146  -56.9796  -27.9989 C   0  0  0  0  0  0  0  0  0  0  0  0
  250.5678  -54.9959  -27.1041 C   0  0  0  0  0  0  0  0  0  0  0  0
  254.2265  -56.8337  -28.1630 N   0  0  0  0  0  0  0  0  0  0  0  0
  253.0639  -57.4812  -28.3082 C   0  0  0  0  0  0  0  0  0  0  0  0
  1 11  1  0
  1 12  1  0
  2  3  2  0
  2 19  1  0
  3  4  1  0
  3  7  1  0
  4  5  2  0
  5  6  1  0
  6 18  2  0
  7 17  2  0
  7 18  1  0
  8 14  2  0
  8 15  1  0
  9 13  2  0
  9 14  1  0
 10 11  2  0
 16 11  1  6
 12 13  1  0
 12 15  2  0
 16 17  1  0
 17 20  1  0
 19 20  2  0
M  END
$$$$
