
     RDKit          3D

 20 22  0  0  0  0  0  0  0  0999 V2000
  -93.5024   29.2319  124.1893 N   0  0  0  0  0  0  0  0  0  0  0  0
  -91.8411   33.5917  123.6762 C   0  0  0  0  0  0  0  0  0  0  0  0
  -93.0401   32.8634  123.8288 C   0  0  0  0  0  0  0  0  0  0  0  0
  -94.2374   33.4306  124.3292 C   0  0  0  0  0  0  0  0  0  0  0  0
  -95.3635   32.6731  124.4564 C   0  0  0  0  0  0  0  0  0  0  0  0
  -95.3542   31.3296  124.1106 C   0  0  0  0  0  0  0  0  0  0  0  0
  -93.0212   31.4872  123.4660 C   0  0  0  0  0  0  0  0  0  0  0  0
  -95.6274   31.9199  122.8326 C   0  0  0  0  0  0  0  0  0  0  0  0
  -94.5624   32.6925  124.8276 C   0  0  0  0  0  0  0  0  0  0  0  0
  -92.7130   27.3518  123.1839 O   0  0  0  0  0  0  0  0  0  0  0  0
  -92.6947   28.5728  123.3355 C   0  0  0  0  0  0  0  0  0  0  0  0
  -94.0535   30.5083  123.9706 C   0  0  0  0  0  0  0  0  0  0  0  0
  -93.8567   31.5061  124.9198 C   0  0  0  0  0  0  0  0  0  0  0  0
  -95.4497   32.8960  123.7901 C   0  0  0  0  0  0  0  0  0  0  0  0
  -94.9290   30.7268  122.9119 C   0  0  0  0  0  0  0  0  0  0  0  0
  -91.7025   29.4595  122.6113 C   0  0  0  0  0  0  0  0  0  0  0  0
  -91.8007   30.9193  122.9860 C   0  0  0  0  0  0  0  0  0  0  0  0
  -94.2196   30.7423  123.6243 C   0  0  0  0  0  0  0  0  0  0  0  0
  -90.7109   33.0691  123.2248 N   0  0  0  0  0  0  0  0  0  0  0  0
  -90.7165   31.7707  122.8989 C   0  0  0  0  0  0  0  0  0  0  0  0
  1 11  1  0
  1 12  1  0
  2  3  2  0
  2 19  1  0
  3  4  1  0
  3  7  1  0
  4  5  2  0
  5  6  1  0
  6 18  2  0
  7 17  2  0
  7 18  1  0
  8 14  2  0
  8 15  1  0
  9 13  2  0
  9 14  1  0
 10 11  2  0
 16 11  1  6
 12 13  1  0
 12 15  2  0
 16 17  1  0
 17 20  1  0
 19 20  2  0
M  END
$$$$
