
     RDKit          3D

 20 22  0  0  0  0  0  0  0  0999 V2000
  -31.0312   14.2867   -0.8736 N   0  0  0  0  0  0  0  0  0  0  0  0
  -36.4918   16.0176    1.7006 C   0  0  0  0  0  0  0  0  0  0  0  0
  -35.5704   16.3634    2.7119 C   0  0  0  0  0  0  0  0  0  0  0  0
  -35.9518   16.9342    3.9508 C   0  0  0  0  0  0  0  0  0  0  0  0
  -35.0129   17.2497    4.8872 C   0  0  0  0  0  0  0  0  0  0  0  0
  -33.6658   17.0301    4.6393 C   0  0  0  0  0  0  0  0  0  0  0  0
  -34.1914   16.1290    2.4495 C   0  0  0  0  0  0  0  0  0  0  0  0
  -30.0342   10.8942   -1.9122 C   0  0  0  0  0  0  0  0  0  0  0  0
  -32.1215   11.4471   -2.9363 C   0  0  0  0  0  0  0  0  0  0  0  0
  -32.8937   15.4212   -1.5161 O   0  0  0  0  0  0  0  0  0  0  0  0
  -32.1437   15.0077   -0.6325 C   0  0  0  0  0  0  0  0  0  0  0  0
  -30.9824   13.0764   -1.5904 C   0  0  0  0  0  0  0  0  0  0  0  0
  -32.0581   12.7195   -2.3971 C   0  0  0  0  0  0  0  0  0  0  0  0
  -31.1151   10.5353   -2.6894 C   0  0  0  0  0  0  0  0  0  0  0  0
  -29.9570   12.1638   -1.3648 C   0  0  0  0  0  0  0  0  0  0  0  0
  -32.3691   15.3291    0.8307 C   0  0  0  0  0  0  0  0  0  0  0  0
  -33.8160   15.5761    1.1862 C   0  0  0  0  0  0  0  0  0  0  0  0
  -33.2544   16.4820    3.4564 C   0  0  0  0  0  0  0  0  0  0  0  0
  -36.1468   15.4984    0.5321 N   0  0  0  0  0  0  0  0  0  0  0  0
  -34.8429   15.2959    0.3059 C   0  0  0  0  0  0  0  0  0  0  0  0
  1 11  1  0
  1 12  1  0
  2  3  2  0
  2 19  1  0
  3  4  1  0
  3  7  1  0
  4  5  2  0
  5  6  1  0
  6 18  2  0
  7 17  2  0
  7 18  1  0
  8 14  2  0
  8 15  1  0
  9 13  2  0
  9 14  1  0
 10 11  2  0
 16 11  1  6
 12 13  1  0
 12 15  2  0
 16 17  1  0
 17 20  1  0
 19 20  2  0
M  END
$$$$
