
     RDKit          3D

 18 19  0  0  0  0  0  0  0  0999 V2000
   84.0943   47.8280  -17.0491 N   0  0  0  0  0  0  0  0  0  0  0  0
   85.0182   49.2145  -15.2716 C   0  0  0  0  0  0  0  0  0  0  0  0
   84.0020   48.9367  -16.1843 C   0  0  0  0  0  0  0  0  0  0  0  0
   83.1533   46.8734  -17.1802 C   0  0  0  0  0  0  0  0  0  0  0  0
   82.9472   46.3829  -18.6006 C   0  0  0  0  0  0  0  0  0  0  0  0
   83.4746   44.9789  -18.7679 C   0  0  0  0  0  0  0  0  0  0  0  0
   85.3349   43.4663  -19.0327 C   0  0  0  0  0  0  0  0  0  0  0  0
   82.6022   43.9415  -19.0928 C   0  0  0  0  0  0  0  0  0  0  0  0
   82.0006   41.3849  -19.7142 Cl  0  0  0  0  0  0  0  0  0  0  0  0
   83.1105   42.6879  -19.3848 C   0  0  0  0  0  0  0  0  0  0  0  0
   84.4694   42.4397  -19.3879 C   0  0  0  0  0  0  0  0  0  0  0  0
   84.8380   44.7196  -18.7139 C   0  0  0  0  0  0  0  0  0  0  0  0
   82.4886   46.4467  -16.2407 O   0  0  0  0  0  0  0  0  0  0  0  0
   82.8338   49.7208  -16.1646 C   0  0  0  0  0  0  0  0  0  0  0  0
   81.7033   49.5008  -17.1353 C   0  0  0  0  0  0  0  0  0  0  0  0
   84.9314   50.1821  -14.3526 N   0  0  0  0  0  0  0  0  0  0  0  0
   83.8133   50.9180  -14.3361 C   0  0  0  0  0  0  0  0  0  0  0  0
   82.7586   50.7258  -15.2054 C   0  0  0  0  0  0  0  0  0  0  0  0
  1  3  1  0
  1  4  1  0
  2  3  2  0
  2 16  1  0
  3 14  1  0
  5  4  1  6
  4 13  2  0
  5  6  1  0
  6  8  1  0
  6 12  2  0
  7 11  2  0
  7 12  1  0
  8 10  2  0
  9 10  1  0
 10 11  1  0
 15 14  1  6
 14 18  2  0
 16 17  2  0
 17 18  1  0
M  END
$$$$
