
     RDKit          3D

 18 19  0  0  0  0  0  0  0  0999 V2000
   33.9735  -20.7372  203.0582 N   0  0  0  0  0  0  0  0  0  0  0  0
   36.0322  -21.9864  202.6878 C   0  0  0  0  0  0  0  0  0  0  0  0
   35.3592  -20.7713  202.8041 C   0  0  0  0  0  0  0  0  0  0  0  0
   33.0918  -21.6673  202.6442 C   0  0  0  0  0  0  0  0  0  0  0  0
   32.6383  -21.5092  201.2054 C   0  0  0  0  0  0  0  0  0  0  0  0
   31.3828  -20.6760  201.1244 C   0  0  0  0  0  0  0  0  0  0  0  0
   30.3061  -18.5174  201.1395 C   0  0  0  0  0  0  0  0  0  0  0  0
   30.1344  -21.2844  201.2440 C   0  0  0  0  0  0  0  0  0  0  0  0
   27.4391  -21.2804  201.3852 Cl  0  0  0  0  0  0  0  0  0  0  0  0
   28.9962  -20.5004  201.3125 C   0  0  0  0  0  0  0  0  0  0  0  0
   29.0643  -19.1207  201.2908 C   0  0  0  0  0  0  0  0  0  0  0  0
   31.4515  -19.2911  201.0446 C   0  0  0  0  0  0  0  0  0  0  0  0
   32.6596  -22.5583  203.3692 O   0  0  0  0  0  0  0  0  0  0  0  0
   36.0986  -19.5748  202.7630 C   0  0  0  0  0  0  0  0  0  0  0  0
   35.4421  -18.2223  202.8548 C   0  0  0  0  0  0  0  0  0  0  0  0
   37.3603  -22.0776  202.5612 N   0  0  0  0  0  0  0  0  0  0  0  0
   38.0566  -20.9345  202.5310 C   0  0  0  0  0  0  0  0  0  0  0  0
   37.4790  -19.6847  202.6279 C   0  0  0  0  0  0  0  0  0  0  0  0
  1  3  1  0
  1  4  1  0
  2  3  2  0
  2 16  1  0
  3 14  1  0
  5  4  1  6
  4 13  2  0
  5  6  1  0
  6  8  1  0
  6 12  2  0
  7 11  2  0
  7 12  1  0
  8 10  2  0
  9 10  1  0
 10 11  1  0
 15 14  1  6
 14 18  2  0
 16 17  2  0
 17 18  1  0
M  END
$$$$
