
     RDKit          3D

 18 19  0  0  0  0  0  0  0  0999 V2000
  -19.7893  -31.4338  119.5991 N   0  0  0  0  0  0  0  0  0  0  0  0
  -19.0675  -29.5717  118.2036 C   0  0  0  0  0  0  0  0  0  0  0  0
  -19.2872  -30.9369  118.3798 C   0  0  0  0  0  0  0  0  0  0  0  0
  -19.0992  -32.2095  120.4569 C   0  0  0  0  0  0  0  0  0  0  0  0
  -19.9001  -33.3465  121.0622 C   0  0  0  0  0  0  0  0  0  0  0  0
  -19.7793  -34.5963  120.2253 C   0  0  0  0  0  0  0  0  0  0  0  0
  -18.6173  -35.8779  118.5442 C   0  0  0  0  0  0  0  0  0  0  0  0
  -20.8481  -35.4877  120.1467 C   0  0  0  0  0  0  0  0  0  0  0  0
  -22.0970  -37.7011  119.2382 Cl  0  0  0  0  0  0  0  0  0  0  0  0
  -20.7844  -36.5546  119.2677 C   0  0  0  0  0  0  0  0  0  0  0  0
  -19.6944  -36.7487  118.4415 C   0  0  0  0  0  0  0  0  0  0  0  0
  -18.6573  -34.8199  119.4378 C   0  0  0  0  0  0  0  0  0  0  0  0
  -17.9261  -32.0076  120.7560 O   0  0  0  0  0  0  0  0  0  0  0  0
  -19.0948  -31.8055  117.2897 C   0  0  0  0  0  0  0  0  0  0  0  0
  -19.2855  -33.2949  117.4071 C   0  0  0  0  0  0  0  0  0  0  0  0
  -18.7022  -29.0347  117.0346 N   0  0  0  0  0  0  0  0  0  0  0  0
  -18.5291  -29.8676  116.0009 C   0  0  0  0  0  0  0  0  0  0  0  0
  -18.7118  -31.2333  116.0806 C   0  0  0  0  0  0  0  0  0  0  0  0
  1  3  1  0
  1  4  1  0
  2  3  2  0
  2 16  1  0
  3 14  1  0
  5  4  1  6
  4 13  2  0
  5  6  1  0
  6  8  1  0
  6 12  2  0
  7 11  2  0
  7 12  1  0
  8 10  2  0
  9 10  1  0
 10 11  1  0
 15 14  1  6
 14 18  2  0
 16 17  2  0
 17 18  1  0
M  END
$$$$
