
     RDKit          3D

 18 19  0  0  0  0  0  0  0  0999 V2000
   91.7903 -749.1727   80.1187 N   0  0  0  0  0  0  0  0  0  0  0  0
   94.1656 -749.7119   80.1633 C   0  0  0  0  0  0  0  0  0  0  0  0
   93.0869 -749.0490   79.5811 C   0  0  0  0  0  0  0  0  0  0  0  0
   91.1775 -748.2403   80.8733 C   0  0  0  0  0  0  0  0  0  0  0  0
   92.0099 -747.0014   81.1432 C   0  0  0  0  0  0  0  0  0  0  0  0
   91.9114 -746.5912   82.5919 C   0  0  0  0  0  0  0  0  0  0  0  0
   92.2771 -747.0730   84.9270 C   0  0  0  0  0  0  0  0  0  0  0  0
   91.1225 -745.5004   82.9545 C   0  0  0  0  0  0  0  0  0  0  0  0
   89.9960 -743.8060   84.7280 Cl  0  0  0  0  0  0  0  0  0  0  0  0
   90.9223 -745.2176   84.2942 C   0  0  0  0  0  0  0  0  0  0  0  0
   91.4654 -746.0061   85.2902 C   0  0  0  0  0  0  0  0  0  0  0  0
   92.5062 -747.3522   83.5895 C   0  0  0  0  0  0  0  0  0  0  0  0
   90.0492 -748.3805   81.3356 O   0  0  0  0  0  0  0  0  0  0  0  0
   93.3242 -748.1724   78.5057 C   0  0  0  0  0  0  0  0  0  0  0  0
   92.2093 -747.4404   77.8066 C   0  0  0  0  0  0  0  0  0  0  0  0
   95.4309 -749.5405   79.7656 N   0  0  0  0  0  0  0  0  0  0  0  0
   95.6481 -748.6990   78.7474 C   0  0  0  0  0  0  0  0  0  0  0  0
   94.6449 -748.0063   78.1008 C   0  0  0  0  0  0  0  0  0  0  0  0
  1  3  1  0
  1  4  1  0
  2  3  2  0
  2 16  1  0
  3 14  1  0
  5  4  1  6
  4 13  2  0
  5  6  1  0
  6  8  1  0
  6 12  2  0
  7 11  2  0
  7 12  1  0
  8 10  2  0
  9 10  1  0
 10 11  1  0
 15 14  1  6
 14 18  2  0
 16 17  2  0
 17 18  1  0
M  END
$$$$
