
     RDKit          3D

 18 19  0  0  0  0  0  0  0  0999 V2000
   10.2033 -132.0935   67.3169 N   0  0  0  0  0  0  0  0  0  0  0  0
    9.4632 -131.9989   69.6362 C   0  0  0  0  0  0  0  0  0  0  0  0
   10.4809 -131.9173   68.6871 C   0  0  0  0  0  0  0  0  0  0  0  0
   11.1115 -131.9895   66.3279 C   0  0  0  0  0  0  0  0  0  0  0  0
   10.9234 -130.7863   65.4238 C   0  0  0  0  0  0  0  0  0  0  0  0
    9.5171 -130.2490   65.5271 C   0  0  0  0  0  0  0  0  0  0  0  0
    7.5697 -129.7409   66.8570 C   0  0  0  0  0  0  0  0  0  0  0  0
    8.7682 -130.0309   64.3718 C   0  0  0  0  0  0  0  0  0  0  0  0
    6.5353 -129.3332   63.0258 Cl  0  0  0  0  0  0  0  0  0  0  0  0
    7.4351 -129.6758   64.4789 C   0  0  0  0  0  0  0  0  0  0  0  0
    6.8138 -129.5547   65.7068 C   0  0  0  0  0  0  0  0  0  0  0  0
    8.9117 -130.0725   66.7646 C   0  0  0  0  0  0  0  0  0  0  0  0
   12.0060 -132.8094   66.1434 O   0  0  0  0  0  0  0  0  0  0  0  0
   11.7758 -131.5579   69.1042 C   0  0  0  0  0  0  0  0  0  0  0  0
   12.9336 -131.4744   68.1445 C   0  0  0  0  0  0  0  0  0  0  0  0
    9.6487 -131.7281   70.9326 N   0  0  0  0  0  0  0  0  0  0  0  0
   10.8821 -131.3795   71.3191 C   0  0  0  0  0  0  0  0  0  0  0  0
   11.9548 -131.2821   70.4561 C   0  0  0  0  0  0  0  0  0  0  0  0
  1  3  1  0
  1  4  1  0
  2  3  2  0
  2 16  1  0
  3 14  1  0
  5  4  1  6
  4 13  2  0
  5  6  1  0
  6  8  1  0
  6 12  2  0
  7 11  2  0
  7 12  1  0
  8 10  2  0
  9 10  1  0
 10 11  1  0
 15 14  1  6
 14 18  2  0
 16 17  2  0
 17 18  1  0
M  END
$$$$
