
     RDKit          3D

 18 19  0  0  0  0  0  0  0  0999 V2000
 -240.3435 -179.6897   81.7794 N   0  0  0  0  0  0  0  0  0  0  0  0
 -238.7680 -178.8655   83.4450 C   0  0  0  0  0  0  0  0  0  0  0  0
 -239.2896 -179.9131   82.6879 C   0  0  0  0  0  0  0  0  0  0  0  0
 -240.2629 -178.9115   80.6831 C   0  0  0  0  0  0  0  0  0  0  0  0
 -240.7101 -177.4776   80.8941 C   0  0  0  0  0  0  0  0  0  0  0  0
 -241.6030 -177.0200   79.7671 C   0  0  0  0  0  0  0  0  0  0  0  0
 -242.2137 -177.0761   77.4341 C   0  0  0  0  0  0  0  0  0  0  0  0
 -242.4459 -175.9245   79.9474 C   0  0  0  0  0  0  0  0  0  0  0  0
 -244.2604 -174.1013   79.1299 Cl  0  0  0  0  0  0  0  0  0  0  0  0
 -243.1539 -175.4227   78.8694 C   0  0  0  0  0  0  0  0  0  0  0  0
 -243.0292 -175.9649   77.6050 C   0  0  0  0  0  0  0  0  0  0  0  0
 -241.5183 -177.6039   78.5098 C   0  0  0  0  0  0  0  0  0  0  0  0
 -239.8878 -179.3226   79.5891 O   0  0  0  0  0  0  0  0  0  0  0  0
 -238.6847 -181.1809   82.7686 C   0  0  0  0  0  0  0  0  0  0  0  0
 -239.2056 -182.3688   82.0031 C   0  0  0  0  0  0  0  0  0  0  0  0
 -237.6970 -178.9967   84.2349 N   0  0  0  0  0  0  0  0  0  0  0  0
 -237.1230 -180.2044   84.2996 C   0  0  0  0  0  0  0  0  0  0  0  0
 -237.5732 -181.3035   83.5967 C   0  0  0  0  0  0  0  0  0  0  0  0
  1  3  1  0
  1  4  1  0
  2  3  2  0
  2 16  1  0
  3 14  1  0
  5  4  1  6
  4 13  2  0
  5  6  1  0
  6  8  1  0
  6 12  2  0
  7 11  2  0
  7 12  1  0
  8 10  2  0
  9 10  1  0
 10 11  1  0
 15 14  1  6
 14 18  2  0
 16 17  2  0
 17 18  1  0
M  END
$$$$
