
     RDKit          3D

 18 19  0  0  0  0  0  0  0  0999 V2000
  -35.7214  114.8808  -40.3210 N   0  0  0  0  0  0  0  0  0  0  0  0
  -34.1800  114.9475  -38.4354 C   0  0  0  0  0  0  0  0  0  0  0  0
  -35.3665  115.3555  -39.0425 C   0  0  0  0  0  0  0  0  0  0  0  0
  -35.9623  115.6606  -41.3923 C   0  0  0  0  0  0  0  0  0  0  0  0
  -35.4425  115.1061  -42.7048 C   0  0  0  0  0  0  0  0  0  0  0  0
  -36.5734  114.8690  -43.6754 C   0  0  0  0  0  0  0  0  0  0  0  0
  -38.8956  115.1244  -44.2765 C   0  0  0  0  0  0  0  0  0  0  0  0
  -36.4200  113.9504  -44.7125 C   0  0  0  0  0  0  0  0  0  0  0  0
  -37.2764  112.5405  -46.8486 Cl  0  0  0  0  0  0  0  0  0  0  0  0
  -37.5055  113.6329  -45.5098 C   0  0  0  0  0  0  0  0  0  0  0  0
  -38.7524  114.1855  -45.2900 C   0  0  0  0  0  0  0  0  0  0  0  0
  -37.8112  115.4701  -43.4866 C   0  0  0  0  0  0  0  0  0  0  0  0
  -36.5290  116.7472  -41.3229 O   0  0  0  0  0  0  0  0  0  0  0  0
  -36.2567  116.1721  -38.3210 C   0  0  0  0  0  0  0  0  0  0  0  0
  -37.5451  116.6763  -38.9163 C   0  0  0  0  0  0  0  0  0  0  0  0
  -33.8497  115.2752  -37.1817 N   0  0  0  0  0  0  0  0  0  0  0  0
  -34.7062  116.0458  -36.5000 C   0  0  0  0  0  0  0  0  0  0  0  0
  -35.8987  116.5077  -37.0190 C   0  0  0  0  0  0  0  0  0  0  0  0
  1  3  1  0
  1  4  1  0
  2  3  2  0
  2 16  1  0
  3 14  1  0
  5  4  1  6
  4 13  2  0
  5  6  1  0
  6  8  1  0
  6 12  2  0
  7 11  2  0
  7 12  1  0
  8 10  2  0
  9 10  1  0
 10 11  1  0
 15 14  1  6
 14 18  2  0
 16 17  2  0
 17 18  1  0
M  END
$$$$
