
     RDKit          3D

 18 19  0  0  0  0  0  0  0  0999 V2000
   46.3038  -10.2175   53.6598 N   0  0  0  0  0  0  0  0  0  0  0  0
   46.8480  -11.2381   51.5155 C   0  0  0  0  0  0  0  0  0  0  0  0
   46.4530  -10.1289   52.2614 C   0  0  0  0  0  0  0  0  0  0  0  0
   47.2723  -10.5984   54.5146 C   0  0  0  0  0  0  0  0  0  0  0  0
   48.6841  -10.3610   54.0136 C   0  0  0  0  0  0  0  0  0  0  0  0
   49.4394  -11.6618   53.8932 C   0  0  0  0  0  0  0  0  0  0  0  0
   49.7652  -13.9556   54.5651 C   0  0  0  0  0  0  0  0  0  0  0  0
   50.6630  -11.6975   53.2265 C   0  0  0  0  0  0  0  0  0  0  0  0
   52.9069  -12.9079   52.3411 Cl  0  0  0  0  0  0  0  0  0  0  0  0
   51.4164  -12.8581   53.2434 C   0  0  0  0  0  0  0  0  0  0  0  0
   50.9992  -13.9829   53.9283 C   0  0  0  0  0  0  0  0  0  0  0  0
   48.9892  -12.8083   54.5352 C   0  0  0  0  0  0  0  0  0  0  0  0
   47.0462  -11.1229   55.6011 O   0  0  0  0  0  0  0  0  0  0  0  0
   46.2997   -8.8896   51.6127 C   0  0  0  0  0  0  0  0  0  0  0  0
   45.8502   -7.6516   52.3433 C   0  0  0  0  0  0  0  0  0  0  0  0
   47.1147  -11.1819   50.2063 N   0  0  0  0  0  0  0  0  0  0  0  0
   46.9739   -9.9971   49.5990 C   0  0  0  0  0  0  0  0  0  0  0  0
   46.5776   -8.8465   50.2501 C   0  0  0  0  0  0  0  0  0  0  0  0
  1  3  1  0
  1  4  1  0
  2  3  2  0
  2 16  1  0
  3 14  1  0
  5  4  1  6
  4 13  2  0
  5  6  1  0
  6  8  1  0
  6 12  2  0
  7 11  2  0
  7 12  1  0
  8 10  2  0
  9 10  1  0
 10 11  1  0
 15 14  1  6
 14 18  2  0
 16 17  2  0
 17 18  1  0
M  END
$$$$
