
     RDKit          3D

 18 19  0  0  0  0  0  0  0  0999 V2000
-1029.8590  439.4583 2760.6436 N   0  0  0  0  0  0  0  0  0  0  0  0
-1029.0505  439.8612 2758.3811 C   0  0  0  0  0  0  0  0  0  0  0  0
-1030.0034  439.3294 2759.2476 C   0  0  0  0  0  0  0  0  0  0  0  0
-1030.4928  438.6990 2761.5579 C   0  0  0  0  0  0  0  0  0  0  0  0
-1030.4708  439.2592 2762.9663 C   0  0  0  0  0  0  0  0  0  0  0  0
-1029.5541  440.4544 2763.0588 C   0  0  0  0  0  0  0  0  0  0  0  0
-1029.1731  442.8196 2762.7725 C   0  0  0  0  0  0  0  0  0  0  0  0
-1028.1832  440.2695 2763.2317 C   0  0  0  0  0  0  0  0  0  0  0  0
-1025.6329  441.1193 2763.4670 Cl  0  0  0  0  0  0  0  0  0  0  0  0
-1027.3333  441.3596 2763.1714 C   0  0  0  0  0  0  0  0  0  0  0  0
-1027.8054  442.6327 2762.9138 C   0  0  0  0  0  0  0  0  0  0  0  0
-1030.0388  441.7406 2762.8574 C   0  0  0  0  0  0  0  0  0  0  0  0
-1031.0258  437.6256 2761.2910 O   0  0  0  0  0  0  0  0  0  0  0  0
-1031.1650  438.7464 2758.7102 C   0  0  0  0  0  0  0  0  0  0  0  0
-1032.2279  438.1265 2759.5793 C   0  0  0  0  0  0  0  0  0  0  0  0
-1029.1936  439.8676 2757.0515 N   0  0  0  0  0  0  0  0  0  0  0  0
-1030.3077  439.3179 2756.5503 C   0  0  0  0  0  0  0  0  0  0  0  0
-1031.3007  438.7572 2757.3259 C   0  0  0  0  0  0  0  0  0  0  0  0
  1  3  1  0
  1  4  1  0
  2  3  2  0
  2 16  1  0
  3 14  1  0
  5  4  1  6
  4 13  2  0
  5  6  1  0
  6  8  1  0
  6 12  2  0
  7 11  2  0
  7 12  1  0
  8 10  2  0
  9 10  1  0
 10 11  1  0
 15 14  1  6
 14 18  2  0
 16 17  2  0
 17 18  1  0
M  END
$$$$
