
     RDKit          3D

 18 19  0  0  0  0  0  0  0  0999 V2000
    4.6009   36.7895   -2.3014 N   0  0  0  0  0  0  0  0  0  0  0  0
    6.9045   37.5568   -2.1015 C   0  0  0  0  0  0  0  0  0  0  0  0
    5.7652   36.9895   -1.5332 C   0  0  0  0  0  0  0  0  0  0  0  0
    4.5872   36.4654   -3.6085 C   0  0  0  0  0  0  0  0  0  0  0  0
    3.2643   35.9166   -4.1077 C   0  0  0  0  0  0  0  0  0  0  0  0
    2.2063   36.0012   -3.0351 C   0  0  0  0  0  0  0  0  0  0  0  0
    0.9557   37.3038   -1.4356 C   0  0  0  0  0  0  0  0  0  0  0  0
    1.7070   34.8358   -2.4560 C   0  0  0  0  0  0  0  0  0  0  0  0
    0.1715   33.4594   -0.7147 Cl  0  0  0  0  0  0  0  0  0  0  0  0
    0.8452   34.9243   -1.3770 C   0  0  0  0  0  0  0  0  0  0  0  0
    0.4825   36.1432   -0.8373 C   0  0  0  0  0  0  0  0  0  0  0  0
    1.7995   37.2303   -2.5320 C   0  0  0  0  0  0  0  0  0  0  0  0
    5.5661   36.5727   -4.3412 O   0  0  0  0  0  0  0  0  0  0  0  0
    5.8228   36.5266   -0.2057 C   0  0  0  0  0  0  0  0  0  0  0  0
    4.6277   35.9265    0.4874 C   0  0  0  0  0  0  0  0  0  0  0  0
    8.0691   37.6645   -1.4530 N   0  0  0  0  0  0  0  0  0  0  0  0
    8.1169   37.2143   -0.1931 C   0  0  0  0  0  0  0  0  0  0  0  0
    7.0397   36.6478    0.4578 C   0  0  0  0  0  0  0  0  0  0  0  0
  1  3  1  0
  1  4  1  0
  2  3  2  0
  2 16  1  0
  3 14  1  0
  5  4  1  6
  4 13  2  0
  5  6  1  0
  6  8  1  0
  6 12  2  0
  7 11  2  0
  7 12  1  0
  8 10  2  0
  9 10  1  0
 10 11  1  0
 15 14  1  6
 14 18  2  0
 16 17  2  0
 17 18  1  0
M  END
$$$$
