
     RDKit          3D

 18 19  0  0  0  0  0  0  0  0999 V2000
   20.4221   44.3476  -73.4798 N   0  0  0  0  0  0  0  0  0  0  0  0
   20.1806   46.2538  -74.9777 C   0  0  0  0  0  0  0  0  0  0  0  0
   19.6533   45.1090  -74.3826 C   0  0  0  0  0  0  0  0  0  0  0  0
   20.1488   43.0806  -73.1139 C   0  0  0  0  0  0  0  0  0  0  0  0
   20.3569   42.0503  -74.2074 C   0  0  0  0  0  0  0  0  0  0  0  0
   19.1598   41.9878  -75.1240 C   0  0  0  0  0  0  0  0  0  0  0  0
   18.2214   41.5607  -77.3048 C   0  0  0  0  0  0  0  0  0  0  0  0
   17.9511   42.5599  -74.7308 C   0  0  0  0  0  0  0  0  0  0  0  0
   15.3745   43.2749  -75.0977 Cl  0  0  0  0  0  0  0  0  0  0  0  0
   16.9018   42.6255  -75.6307 C   0  0  0  0  0  0  0  0  0  0  0  0
   17.0270   42.1592  -76.9250 C   0  0  0  0  0  0  0  0  0  0  0  0
   19.2717   41.4661  -76.4063 C   0  0  0  0  0  0  0  0  0  0  0  0
   19.7365   42.7735  -71.9994 O   0  0  0  0  0  0  0  0  0  0  0  0
   18.3067   44.7759  -74.6179 C   0  0  0  0  0  0  0  0  0  0  0  0
   17.6713   43.5416  -74.0334 C   0  0  0  0  0  0  0  0  0  0  0  0
   19.4606   47.0743  -75.7501 N   0  0  0  0  0  0  0  0  0  0  0  0
   18.1782   46.7538  -75.9623 C   0  0  0  0  0  0  0  0  0  0  0  0
   17.5705   45.6367  -75.4260 C   0  0  0  0  0  0  0  0  0  0  0  0
  1  3  1  0
  1  4  1  0
  2  3  2  0
  2 16  1  0
  3 14  1  0
  5  4  1  6
  4 13  2  0
  5  6  1  0
  6  8  1  0
  6 12  2  0
  7 11  2  0
  7 12  1  0
  8 10  2  0
  9 10  1  0
 10 11  1  0
 15 14  1  6
 14 18  2  0
 16 17  2  0
 17 18  1  0
M  END
$$$$
