
     RDKit          3D

 18 19  0  0  0  0  0  0  0  0999 V2000
 -219.8274 -118.9125  197.4064 N   0  0  0  0  0  0  0  0  0  0  0  0
 -222.2104 -119.3887  197.5804 C   0  0  0  0  0  0  0  0  0  0  0  0
 -221.0617 -118.7703  198.0713 C   0  0  0  0  0  0  0  0  0  0  0  0
 -218.7258 -119.4744  197.9401 C   0  0  0  0  0  0  0  0  0  0  0  0
 -218.9469 -120.8511  198.5370 C   0  0  0  0  0  0  0  0  0  0  0  0
 -217.7991 -121.2394  199.4363 C   0  0  0  0  0  0  0  0  0  0  0  0
 -215.4423 -121.6422  199.7559 C   0  0  0  0  0  0  0  0  0  0  0  0
 -218.0528 -121.8199  200.6778 C   0  0  0  0  0  0  0  0  0  0  0  0
 -217.3283 -122.9564  203.0163 Cl  0  0  0  0  0  0  0  0  0  0  0  0
 -216.9994 -122.3034  201.4340 C   0  0  0  0  0  0  0  0  0  0  0  0
 -215.6963 -122.2496  200.9789 C   0  0  0  0  0  0  0  0  0  0  0  0
 -216.4849 -121.1315  198.9999 C   0  0  0  0  0  0  0  0  0  0  0  0
 -217.6325 -118.9176  197.9738 O   0  0  0  0  0  0  0  0  0  0  0  0
 -221.1684 -117.9190  199.1865 C   0  0  0  0  0  0  0  0  0  0  0  0
 -219.9704 -117.2359  199.7921 C   0  0  0  0  0  0  0  0  0  0  0  0
 -223.4256 -119.1955  198.1040 N   0  0  0  0  0  0  0  0  0  0  0  0
 -223.5189 -118.3779  199.1599 C   0  0  0  0  0  0  0  0  0  0  0  0
 -222.4382 -117.7299  199.7229 C   0  0  0  0  0  0  0  0  0  0  0  0
  1  3  1  0
  1  4  1  0
  2  3  2  0
  2 16  1  0
  3 14  1  0
  5  4  1  6
  4 13  2  0
  5  6  1  0
  6  8  1  0
  6 12  2  0
  7 11  2  0
  7 12  1  0
  8 10  2  0
  9 10  1  0
 10 11  1  0
 15 14  1  6
 14 18  2  0
 16 17  2  0
 17 18  1  0
M  END
$$$$
