
     RDKit          3D

 18 19  0  0  0  0  0  0  0  0999 V2000
  -33.0375   78.0279   22.0436 N   0  0  0  0  0  0  0  0  0  0  0  0
  -34.4343   76.3844   20.9105 C   0  0  0  0  0  0  0  0  0  0  0  0
  -33.3492   76.6898   21.7304 C   0  0  0  0  0  0  0  0  0  0  0  0
  -33.6835   78.7747   22.9595 C   0  0  0  0  0  0  0  0  0  0  0  0
  -35.1958   78.7359   22.8510 C   0  0  0  0  0  0  0  0  0  0  0  0
  -35.8271   79.7778   23.7415 C   0  0  0  0  0  0  0  0  0  0  0  0
  -35.7722   81.9648   24.7579 C   0  0  0  0  0  0  0  0  0  0  0  0
  -36.8815   79.4279   24.5834 C   0  0  0  0  0  0  0  0  0  0  0  0
  -38.7276   79.9202   26.4896 Cl  0  0  0  0  0  0  0  0  0  0  0  0
  -37.3596   80.3494   25.4983 C   0  0  0  0  0  0  0  0  0  0  0  0
  -36.8013   81.6072   25.6193 C   0  0  0  0  0  0  0  0  0  0  0  0
  -35.3004   81.0605   23.8203 C   0  0  0  0  0  0  0  0  0  0  0  0
  -33.1081   79.4587   23.8006 O   0  0  0  0  0  0  0  0  0  0  0  0
  -32.6254   75.6393   22.3241 C   0  0  0  0  0  0  0  0  0  0  0  0
  -31.4253   75.8863   23.2001 C   0  0  0  0  0  0  0  0  0  0  0  0
  -34.8429   75.1333   20.6740 N   0  0  0  0  0  0  0  0  0  0  0  0
  -34.1533   74.1405   21.2492 C   0  0  0  0  0  0  0  0  0  0  0  0
  -33.0600   74.3428   22.0668 C   0  0  0  0  0  0  0  0  0  0  0  0
  1  3  1  0
  1  4  1  0
  2  3  2  0
  2 16  1  0
  3 14  1  0
  5  4  1  6
  4 13  2  0
  5  6  1  0
  6  8  1  0
  6 12  2  0
  7 11  2  0
  7 12  1  0
  8 10  2  0
  9 10  1  0
 10 11  1  0
 15 14  1  6
 14 18  2  0
 16 17  2  0
 17 18  1  0
M  END
$$$$
