
     RDKit          3D

 18 19  0  0  0  0  0  0  0  0999 V2000
   13.8872  -62.5170  -10.0724 N   0  0  0  0  0  0  0  0  0  0  0  0
   13.3706  -64.5460   -8.8265 C   0  0  0  0  0  0  0  0  0  0  0  0
   13.6098  -63.1731   -8.8565 C   0  0  0  0  0  0  0  0  0  0  0  0
   14.4629  -61.3041  -10.1788 C   0  0  0  0  0  0  0  0  0  0  0  0
   13.5781  -60.1474   -9.7546 C   0  0  0  0  0  0  0  0  0  0  0  0
   13.6630  -59.9219   -8.2650 C   0  0  0  0  0  0  0  0  0  0  0  0
   13.8638  -58.4172   -6.3902 C   0  0  0  0  0  0  0  0  0  0  0  0
   13.9022  -60.9968   -7.4104 C   0  0  0  0  0  0  0  0  0  0  0  0
   14.3426  -62.1250   -4.9985 Cl  0  0  0  0  0  0  0  0  0  0  0  0
   14.1209  -60.7635   -6.0641 C   0  0  0  0  0  0  0  0  0  0  0  0
   14.1340  -59.4841   -5.5431 C   0  0  0  0  0  0  0  0  0  0  0  0
   13.6185  -58.6385   -7.7357 C   0  0  0  0  0  0  0  0  0  0  0  0
   15.5991  -61.1313  -10.6095 O   0  0  0  0  0  0  0  0  0  0  0  0
   13.4734  -62.4304   -7.6692 C   0  0  0  0  0  0  0  0  0  0  0  0
   13.7404  -60.9491   -7.6141 C   0  0  0  0  0  0  0  0  0  0  0  0
   12.9915  -65.1983   -7.7224 N   0  0  0  0  0  0  0  0  0  0  0  0
   12.8565  -64.4824   -6.5993 C   0  0  0  0  0  0  0  0  0  0  0  0
   13.0814  -63.1226   -6.5277 C   0  0  0  0  0  0  0  0  0  0  0  0
  1  3  1  0
  1  4  1  0
  2  3  2  0
  2 16  1  0
  3 14  1  0
  5  4  1  6
  4 13  2  0
  5  6  1  0
  6  8  1  0
  6 12  2  0
  7 11  2  0
  7 12  1  0
  8 10  2  0
  9 10  1  0
 10 11  1  0
 15 14  1  6
 14 18  2  0
 16 17  2  0
 17 18  1  0
M  END
$$$$
