
     RDKit          3D

 18 19  0  0  0  0  0  0  0  0999 V2000
   -9.0924  106.0078   25.6454 N   0  0  0  0  0  0  0  0  0  0  0  0
   -8.6927  106.4221   23.2781 C   0  0  0  0  0  0  0  0  0  0  0  0
   -8.8475  105.5340   24.3411 C   0  0  0  0  0  0  0  0  0  0  0  0
   -9.1331  107.3072   25.9975 C   0  0  0  0  0  0  0  0  0  0  0  0
   -7.8758  108.0889   25.6681 C   0  0  0  0  0  0  0  0  0  0  0  0
   -6.7087  107.6054   26.4935 C   0  0  0  0  0  0  0  0  0  0  0  0
   -4.9673  105.9859   26.8978 C   0  0  0  0  0  0  0  0  0  0  0  0
   -6.4702  108.1558   27.7517 C   0  0  0  0  0  0  0  0  0  0  0  0
   -5.1532  108.3595   30.0987 Cl  0  0  0  0  0  0  0  0  0  0  0  0
   -5.4888  107.6108   28.5608 C   0  0  0  0  0  0  0  0  0  0  0  0
   -4.7501  106.5127   28.1644 C   0  0  0  0  0  0  0  0  0  0  0  0
   -5.9296  106.5373   26.0677 C   0  0  0  0  0  0  0  0  0  0  0  0
  -10.0911  107.8233   26.5653 O   0  0  0  0  0  0  0  0  0  0  0  0
   -8.8546  104.1514   24.0799 C   0  0  0  0  0  0  0  0  0  0  0  0
   -8.9899  103.1281   25.1768 C   0  0  0  0  0  0  0  0  0  0  0  0
   -8.5729  106.0268   22.0063 N   0  0  0  0  0  0  0  0  0  0  0  0
   -8.5887  104.7099   21.7661 C   0  0  0  0  0  0  0  0  0  0  0  0
   -8.7260  103.7545   22.7525 C   0  0  0  0  0  0  0  0  0  0  0  0
  1  3  1  0
  1  4  1  0
  2  3  2  0
  2 16  1  0
  3 14  1  0
  5  4  1  6
  4 13  2  0
  5  6  1  0
  6  8  1  0
  6 12  2  0
  7 11  2  0
  7 12  1  0
  8 10  2  0
  9 10  1  0
 10 11  1  0
 15 14  1  6
 14 18  2  0
 16 17  2  0
 17 18  1  0
M  END
$$$$
