
     RDKit          3D

 18 19  0  0  0  0  0  0  0  0999 V2000
   16.0019   24.6916  -44.0734 N   0  0  0  0  0  0  0  0  0  0  0  0
   13.8489   24.0156  -44.9918 C   0  0  0  0  0  0  0  0  0  0  0  0
   14.8124   23.9412  -43.9872 C   0  0  0  0  0  0  0  0  0  0  0  0
   16.9202   24.7942  -43.0937 C   0  0  0  0  0  0  0  0  0  0  0  0
   16.4290   25.4930  -41.8403 C   0  0  0  0  0  0  0  0  0  0  0  0
   17.0888   26.8407  -41.6808 C   0  0  0  0  0  0  0  0  0  0  0  0
   18.3526   28.4003  -40.3431 C   0  0  0  0  0  0  0  0  0  0  0  0
   16.8122   27.8631  -42.5870 C   0  0  0  0  0  0  0  0  0  0  0  0
   17.0147   30.3813  -43.5367 Cl  0  0  0  0  0  0  0  0  0  0  0  0
   17.3067   29.1344  -42.3543 C   0  0  0  0  0  0  0  0  0  0  0  0
   18.0513   29.4274  -41.2282 C   0  0  0  0  0  0  0  0  0  0  0  0
   17.8848   27.1174  -40.5768 C   0  0  0  0  0  0  0  0  0  0  0  0
   18.0727   24.3861  -43.2028 O   0  0  0  0  0  0  0  0  0  0  0  0
   14.5393   23.1817  -42.8345 C   0  0  0  0  0  0  0  0  0  0  0  0
   15.5388   23.0304  -41.7179 C   0  0  0  0  0  0  0  0  0  0  0  0
   12.6565   23.4163  -44.9073 N   0  0  0  0  0  0  0  0  0  0  0  0
   12.4023   22.7023  -43.8036 C   0  0  0  0  0  0  0  0  0  0  0  0
   13.2961   22.5612  -42.7616 C   0  0  0  0  0  0  0  0  0  0  0  0
  1  3  1  0
  1  4  1  0
  2  3  2  0
  2 16  1  0
  3 14  1  0
  5  4  1  6
  4 13  2  0
  5  6  1  0
  6  8  1  0
  6 12  2  0
  7 11  2  0
  7 12  1  0
  8 10  2  0
  9 10  1  0
 10 11  1  0
 15 14  1  6
 14 18  2  0
 16 17  2  0
 17 18  1  0
M  END
$$$$
