
     RDKit          3D

 18 19  0  0  0  0  0  0  0  0999 V2000
   43.8693 -100.5491   -8.1494 N   0  0  0  0  0  0  0  0  0  0  0  0
   42.6970  -98.6502   -7.1719 C   0  0  0  0  0  0  0  0  0  0  0  0
   43.1386  -99.3527   -8.2919 C   0  0  0  0  0  0  0  0  0  0  0  0
   44.1395 -101.4100   -9.1493 C   0  0  0  0  0  0  0  0  0  0  0  0
   45.5721 -101.9072   -9.1827 C   0  0  0  0  0  0  0  0  0  0  0  0
   46.3244 -101.4667   -7.9511 C   0  0  0  0  0  0  0  0  0  0  0  0
   46.4117 -100.1975   -5.9015 C   0  0  0  0  0  0  0  0  0  0  0  0
   47.6986 -101.6820   -7.8603 C   0  0  0  0  0  0  0  0  0  0  0  0
   50.1079 -101.4933   -6.6587 Cl  0  0  0  0  0  0  0  0  0  0  0  0
   48.4046 -101.1497   -6.7959 C   0  0  0  0  0  0  0  0  0  0  0  0
   47.7860 -100.3840   -5.8265 C   0  0  0  0  0  0  0  0  0  0  0  0
   45.6887 -100.7457   -6.9485 C   0  0  0  0  0  0  0  0  0  0  0  0
   43.3119 -101.7506   -9.9893 O   0  0  0  0  0  0  0  0  0  0  0  0
   42.7605  -98.9050   -9.5712 C   0  0  0  0  0  0  0  0  0  0  0  0
   43.2187  -99.5935  -10.8301 C   0  0  0  0  0  0  0  0  0  0  0  0
   41.9052  -97.5752   -7.2482 N   0  0  0  0  0  0  0  0  0  0  0  0
   41.5440  -97.1612   -8.4690 C   0  0  0  0  0  0  0  0  0  0  0  0
   41.9392  -97.7838   -9.6356 C   0  0  0  0  0  0  0  0  0  0  0  0
  1  3  1  0
  1  4  1  0
  2  3  2  0
  2 16  1  0
  3 14  1  0
  5  4  1  6
  4 13  2  0
  5  6  1  0
  6  8  1  0
  6 12  2  0
  7 11  2  0
  7 12  1  0
  8 10  2  0
  9 10  1  0
 10 11  1  0
 15 14  1  6
 14 18  2  0
 16 17  2  0
 17 18  1  0
M  END
$$$$
