
     RDKit          3D

 18 19  0  0  0  0  0  0  0  0999 V2000
   -6.1563   -6.5200   56.0380 N   0  0  0  0  0  0  0  0  0  0  0  0
   -6.1676   -4.0929   55.8261 C   0  0  0  0  0  0  0  0  0  0  0  0
   -6.6430   -5.3433   55.4344 C   0  0  0  0  0  0  0  0  0  0  0  0
   -6.2140   -6.7896   57.3562 C   0  0  0  0  0  0  0  0  0  0  0  0
   -7.1084   -7.9589   57.7215 C   0  0  0  0  0  0  0  0  0  0  0  0
   -6.3440   -8.9984   58.5039 C   0  0  0  0  0  0  0  0  0  0  0  0
   -5.5535  -11.2647   58.7456 C   0  0  0  0  0  0  0  0  0  0  0  0
   -5.9677   -8.7411   59.8212 C   0  0  0  0  0  0  0  0  0  0  0  0
   -4.8616   -9.3874   62.1968 Cl  0  0  0  0  0  0  0  0  0  0  0  0
   -5.3951   -9.7489   60.5772 C   0  0  0  0  0  0  0  0  0  0  0  0
   -5.2074  -11.0193   60.0680 C   0  0  0  0  0  0  0  0  0  0  0  0
   -6.1048  -10.2580   57.9696 C   0  0  0  0  0  0  0  0  0  0  0  0
   -5.6200   -6.1333   58.2065 O   0  0  0  0  0  0  0  0  0  0  0  0
   -7.6892   -5.4125   54.4960 C   0  0  0  0  0  0  0  0  0  0  0  0
   -8.2392   -6.7250   54.0026 C   0  0  0  0  0  0  0  0  0  0  0  0
   -6.6741   -2.9423   55.3701 N   0  0  0  0  0  0  0  0  0  0  0  0
   -7.6744   -3.0176   54.4837 C   0  0  0  0  0  0  0  0  0  0  0  0
   -8.2043   -4.2077   54.0280 C   0  0  0  0  0  0  0  0  0  0  0  0
  1  3  1  0
  1  4  1  0
  2  3  2  0
  2 16  1  0
  3 14  1  0
  5  4  1  6
  4 13  2  0
  5  6  1  0
  6  8  1  0
  6 12  2  0
  7 11  2  0
  7 12  1  0
  8 10  2  0
  9 10  1  0
 10 11  1  0
 15 14  1  6
 14 18  2  0
 16 17  2  0
 17 18  1  0
M  END
$$$$
