
     RDKit          3D

 18 19  0  0  0  0  0  0  0  0999 V2000
   39.8647  115.7116   97.7596 N   0  0  0  0  0  0  0  0  0  0  0  0
   42.2441  115.1892   97.7891 C   0  0  0  0  0  0  0  0  0  0  0  0
   41.1821  115.9659   97.3290 C   0  0  0  0  0  0  0  0  0  0  0  0
   38.8564  115.3146   96.9599 C   0  0  0  0  0  0  0  0  0  0  0  0
   39.2922  114.5180   95.7450 C   0  0  0  0  0  0  0  0  0  0  0  0
   39.6668  113.1080   96.1309 C   0  0  0  0  0  0  0  0  0  0  0  0
   41.0966  111.1829   95.8693 C   0  0  0  0  0  0  0  0  0  0  0  0
   38.7831  112.3330   96.8801 C   0  0  0  0  0  0  0  0  0  0  0  0
   37.9915  110.0650   98.1104 Cl  0  0  0  0  0  0  0  0  0  0  0  0
   39.0692  110.9984   97.1078 C   0  0  0  0  0  0  0  0  0  0  0  0
   40.2017  110.4014   96.5886 C   0  0  0  0  0  0  0  0  0  0  0  0
   40.8349  112.5264   95.6550 C   0  0  0  0  0  0  0  0  0  0  0  0
   37.6792  115.5921   97.1689 O   0  0  0  0  0  0  0  0  0  0  0  0
   41.4533  117.0728   96.5037 C   0  0  0  0  0  0  0  0  0  0  0  0
   40.3593  117.9442   95.9447 C   0  0  0  0  0  0  0  0  0  0  0  0
   43.5230  115.4566   97.5041 N   0  0  0  0  0  0  0  0  0  0  0  0
   43.7722  116.5161   96.7248 C   0  0  0  0  0  0  0  0  0  0  0  0
   42.7880  117.3372   96.2130 C   0  0  0  0  0  0  0  0  0  0  0  0
  1  3  1  0
  1  4  1  0
  2  3  2  0
  2 16  1  0
  3 14  1  0
  5  4  1  6
  4 13  2  0
  5  6  1  0
  6  8  1  0
  6 12  2  0
  7 11  2  0
  7 12  1  0
  8 10  2  0
  9 10  1  0
 10 11  1  0
 15 14  1  6
 14 18  2  0
 16 17  2  0
 17 18  1  0
M  END
$$$$
