
     RDKit          3D

 18 19  0  0  0  0  0  0  0  0999 V2000
  127.0280   55.4614   23.1390 N   0  0  0  0  0  0  0  0  0  0  0  0
  129.1179   55.4864   21.8870 C   0  0  0  0  0  0  0  0  0  0  0  0
  127.8509   54.9519   22.1148 C   0  0  0  0  0  0  0  0  0  0  0  0
  125.8670   56.1145   22.9406 C   0  0  0  0  0  0  0  0  0  0  0  0
  124.8952   56.0393   24.1027 C   0  0  0  0  0  0  0  0  0  0  0  0
  123.7181   55.1576   23.7649 C   0  0  0  0  0  0  0  0  0  0  0  0
  121.5828   54.8502   22.6856 C   0  0  0  0  0  0  0  0  0  0  0  0
  123.5364   53.9506   24.4380 C   0  0  0  0  0  0  0  0  0  0  0  0
  122.2066   51.6747   25.0182 Cl  0  0  0  0  0  0  0  0  0  0  0  0
  122.3819   53.2176   24.2263 C   0  0  0  0  0  0  0  0  0  0  0  0
  121.3855   53.6634   23.3795 C   0  0  0  0  0  0  0  0  0  0  0  0
  122.7450   55.5817   22.8692 C   0  0  0  0  0  0  0  0  0  0  0  0
  125.5923   56.7023   21.8987 O   0  0  0  0  0  0  0  0  0  0  0  0
  127.3616   53.9606   21.2442 C   0  0  0  0  0  0  0  0  0  0  0  0
  126.0147   53.3152   21.4390 C   0  0  0  0  0  0  0  0  0  0  0  0
  129.8923   55.1202   20.8603 N   0  0  0  0  0  0  0  0  0  0  0  0
  129.4156   54.1822   20.0325 C   0  0  0  0  0  0  0  0  0  0  0  0
  128.1793   53.5873   20.1822 C   0  0  0  0  0  0  0  0  0  0  0  0
  1  3  1  0
  1  4  1  0
  2  3  2  0
  2 16  1  0
  3 14  1  0
  5  4  1  6
  4 13  2  0
  5  6  1  0
  6  8  1  0
  6 12  2  0
  7 11  2  0
  7 12  1  0
  8 10  2  0
  9 10  1  0
 10 11  1  0
 15 14  1  6
 14 18  2  0
 16 17  2  0
 17 18  1  0
M  END
$$$$
