
     RDKit          3D

 18 19  0  0  0  0  0  0  0  0999 V2000
  -58.0427  -96.2027  -62.3261 N   0  0  0  0  0  0  0  0  0  0  0  0
  -58.8186  -95.3467  -60.1812 C   0  0  0  0  0  0  0  0  0  0  0  0
  -58.1112  -96.2924  -60.9215 C   0  0  0  0  0  0  0  0  0  0  0  0
  -57.0187  -96.6510  -63.0772 C   0  0  0  0  0  0  0  0  0  0  0  0
  -57.0015  -96.1229  -64.4989 C   0  0  0  0  0  0  0  0  0  0  0  0
  -57.5419  -97.1510  -65.4624 C   0  0  0  0  0  0  0  0  0  0  0  0
  -57.3819  -99.3196  -66.5065 C   0  0  0  0  0  0  0  0  0  0  0  0
  -58.5145  -96.7896  -66.3932 C   0  0  0  0  0  0  0  0  0  0  0  0
  -60.1720  -97.2540  -68.4720 Cl  0  0  0  0  0  0  0  0  0  0  0  0
  -58.9007  -97.6963  -67.3646 C   0  0  0  0  0  0  0  0  0  0  0  0
  -58.3276  -98.9501  -67.4543 C   0  0  0  0  0  0  0  0  0  0  0  0
  -57.0040  -98.4305  -65.5136 C   0  0  0  0  0  0  0  0  0  0  0  0
  -56.1772  -97.4449  -62.6670 O   0  0  0  0  0  0  0  0  0  0  0  0
  -57.3815  -97.2849  -60.2415 C   0  0  0  0  0  0  0  0  0  0  0  0
  -56.6142  -98.3572  -60.9695 C   0  0  0  0  0  0  0  0  0  0  0  0
  -58.8219  -95.3179  -58.8443 N   0  0  0  0  0  0  0  0  0  0  0  0
  -58.1187  -96.2612  -58.2056 C   0  0  0  0  0  0  0  0  0  0  0  0
  -57.3965  -97.2446  -58.8508 C   0  0  0  0  0  0  0  0  0  0  0  0
  1  3  1  0
  1  4  1  0
  2  3  2  0
  2 16  1  0
  3 14  1  0
  5  4  1  6
  4 13  2  0
  5  6  1  0
  6  8  1  0
  6 12  2  0
  7 11  2  0
  7 12  1  0
  8 10  2  0
  9 10  1  0
 10 11  1  0
 15 14  1  6
 14 18  2  0
 16 17  2  0
 17 18  1  0
M  END
$$$$
