
     RDKit          3D

 18 19  0  0  0  0  0  0  0  0999 V2000
   39.8562   36.1600    0.0178 N   0  0  0  0  0  0  0  0  0  0  0  0
   37.9442   34.9302    0.8938 C   0  0  0  0  0  0  0  0  0  0  0  0
   38.8597   35.1746   -0.1285 C   0  0  0  0  0  0  0  0  0  0  0  0
   41.1716   35.9093    0.1620 C   0  0  0  0  0  0  0  0  0  0  0  0
   41.6320   35.7679    1.6003 C   0  0  0  0  0  0  0  0  0  0  0  0
   40.8921   34.6518    2.2959 C   0  0  0  0  0  0  0  0  0  0  0  0
   40.5203   32.2940    2.6445 C   0  0  0  0  0  0  0  0  0  0  0  0
   39.7250   34.9271    3.0067 C   0  0  0  0  0  0  0  0  0  0  0  0
   37.5612   34.2493    4.4706 Cl  0  0  0  0  0  0  0  0  0  0  0  0
   38.9757   33.8831    3.5201 C   0  0  0  0  0  0  0  0  0  0  0  0
   39.3405   32.5650    3.3253 C   0  0  0  0  0  0  0  0  0  0  0  0
   41.2932   33.3305    2.1467 C   0  0  0  0  0  0  0  0  0  0  0  0
   41.9511   35.8281   -0.7825 O   0  0  0  0  0  0  0  0  0  0  0  0
   38.8395   34.3561   -1.2729 C   0  0  0  0  0  0  0  0  0  0  0  0
   39.7775   34.5730   -2.4312 C   0  0  0  0  0  0  0  0  0  0  0  0
   37.0534   33.9336    0.8549 N   0  0  0  0  0  0  0  0  0  0  0  0
   37.0466   33.1550   -0.2341 C   0  0  0  0  0  0  0  0  0  0  0  0
   37.9054   33.3253   -1.3010 C   0  0  0  0  0  0  0  0  0  0  0  0
  1  3  1  0
  1  4  1  0
  2  3  2  0
  2 16  1  0
  3 14  1  0
  5  4  1  6
  4 13  2  0
  5  6  1  0
  6  8  1  0
  6 12  2  0
  7 11  2  0
  7 12  1  0
  8 10  2  0
  9 10  1  0
 10 11  1  0
 15 14  1  6
 14 18  2  0
 16 17  2  0
 17 18  1  0
M  END
$$$$
