
     RDKit          3D

 18 19  0  0  0  0  0  0  0  0999 V2000
   -7.5601   29.2666  142.6651 N   0  0  0  0  0  0  0  0  0  0  0  0
   -7.9334   27.8492  140.7190 C   0  0  0  0  0  0  0  0  0  0  0  0
   -7.3460   28.9697  141.3044 C   0  0  0  0  0  0  0  0  0  0  0  0
   -8.6882   29.8039  143.1676 C   0  0  0  0  0  0  0  0  0  0  0  0
   -9.2657   29.0592  144.3561 C   0  0  0  0  0  0  0  0  0  0  0  0
  -10.7395   29.3455  144.5074 C   0  0  0  0  0  0  0  0  0  0  0  0
  -12.6523   30.7411  144.0466 C   0  0  0  0  0  0  0  0  0  0  0  0
  -11.4883   28.6573  145.4606 C   0  0  0  0  0  0  0  0  0  0  0  0
  -13.7455   28.1037  146.8327 Cl  0  0  0  0  0  0  0  0  0  0  0  0
  -12.8023   29.0244  145.6922 C   0  0  0  0  0  0  0  0  0  0  0  0
  -13.3899   30.0775  145.0184 C   0  0  0  0  0  0  0  0  0  0  0  0
  -11.3436   30.3678  143.7870 C   0  0  0  0  0  0  0  0  0  0  0  0
   -9.2318   30.7976  142.6948 O   0  0  0  0  0  0  0  0  0  0  0  0
   -6.4546   29.7487  140.5439 C   0  0  0  0  0  0  0  0  0  0  0  0
   -5.8008   30.9884  141.0957 C   0  0  0  0  0  0  0  0  0  0  0  0
   -7.6739   27.4575  139.4670 N   0  0  0  0  0  0  0  0  0  0  0  0
   -6.8186   28.2002  138.7536 C   0  0  0  0  0  0  0  0  0  0  0  0
   -6.1965   29.3312  139.2421 C   0  0  0  0  0  0  0  0  0  0  0  0
  1  3  1  0
  1  4  1  0
  2  3  2  0
  2 16  1  0
  3 14  1  0
  5  4  1  6
  4 13  2  0
  5  6  1  0
  6  8  1  0
  6 12  2  0
  7 11  2  0
  7 12  1  0
  8 10  2  0
  9 10  1  0
 10 11  1  0
 15 14  1  6
 14 18  2  0
 16 17  2  0
 17 18  1  0
M  END
$$$$
