
     RDKit          3D

 18 19  0  0  0  0  0  0  0  0999 V2000
   -0.9902   16.9482   57.5387 N   0  0  0  0  0  0  0  0  0  0  0  0
    0.0109   18.6922   58.9141 C   0  0  0  0  0  0  0  0  0  0  0  0
    0.0469   17.8685   57.7903 C   0  0  0  0  0  0  0  0  0  0  0  0
   -1.3349   16.4911   56.3196 C   0  0  0  0  0  0  0  0  0  0  0  0
   -0.5732   17.1241   55.1709 C   0  0  0  0  0  0  0  0  0  0  0  0
   -0.8799   18.5980   55.0679 C   0  0  0  0  0  0  0  0  0  0  0  0
   -1.1982   20.7422   56.1262 C   0  0  0  0  0  0  0  0  0  0  0  0
   -1.3992   19.1202   53.8845 C   0  0  0  0  0  0  0  0  0  0  0  0
   -2.3867   21.0969   52.3347 Cl  0  0  0  0  0  0  0  0  0  0  0  0
   -1.8113   20.4406   53.8435 C   0  0  0  0  0  0  0  0  0  0  0  0
   -1.7455   21.2551   54.9573 C   0  0  0  0  0  0  0  0  0  0  0  0
   -0.7588   19.4292   56.1741 C   0  0  0  0  0  0  0  0  0  0  0  0
   -2.2122   15.6525   56.1360 O   0  0  0  0  0  0  0  0  0  0  0  0
    1.0842   18.0357   56.8544 C   0  0  0  0  0  0  0  0  0  0  0  0
    1.2074   17.1679   55.6294 C   0  0  0  0  0  0  0  0  0  0  0  0
    0.9063   19.6592   59.1410 N   0  0  0  0  0  0  0  0  0  0  0  0
    1.8851   19.8163   58.2414 C   0  0  0  0  0  0  0  0  0  0  0  0
    2.0102   19.0434   57.1048 C   0  0  0  0  0  0  0  0  0  0  0  0
  1  3  1  0
  1  4  1  0
  2  3  2  0
  2 16  1  0
  3 14  1  0
  5  4  1  6
  4 13  2  0
  5  6  1  0
  6  8  1  0
  6 12  2  0
  7 11  2  0
  7 12  1  0
  8 10  2  0
  9 10  1  0
 10 11  1  0
 15 14  1  6
 14 18  2  0
 16 17  2  0
 17 18  1  0
M  END
$$$$
