
     RDKit          3D

 18 19  0  0  0  0  0  0  0  0999 V2000
  -43.2611   51.2022   -7.0545 N   0  0  0  0  0  0  0  0  0  0  0  0
  -41.2448   52.3167   -6.2621 C   0  0  0  0  0  0  0  0  0  0  0  0
  -42.2794   51.4039   -6.0640 C   0  0  0  0  0  0  0  0  0  0  0  0
  -43.0066   50.8625   -8.3327 C   0  0  0  0  0  0  0  0  0  0  0  0
  -43.0426   49.3713   -8.6075 C   0  0  0  0  0  0  0  0  0  0  0  0
  -41.7546   48.9090   -9.2434 C   0  0  0  0  0  0  0  0  0  0  0  0
  -39.7559   49.3979  -10.5025 C   0  0  0  0  0  0  0  0  0  0  0  0
  -41.5092   47.5469   -9.4085 C   0  0  0  0  0  0  0  0  0  0  0  0
  -40.0640   45.4285  -10.2502 Cl  0  0  0  0  0  0  0  0  0  0  0  0
  -40.3956   47.1347  -10.1191 C   0  0  0  0  0  0  0  0  0  0  0  0
  -39.5272   48.0416  -10.6953 C   0  0  0  0  0  0  0  0  0  0  0  0
  -40.8533   49.8241   -9.7721 C   0  0  0  0  0  0  0  0  0  0  0  0
  -42.7374   51.6799   -9.2079 O   0  0  0  0  0  0  0  0  0  0  0  0
  -42.2771   50.6115   -4.9012 C   0  0  0  0  0  0  0  0  0  0  0  0
  -43.3730   49.6224   -4.6021 C   0  0  0  0  0  0  0  0  0  0  0  0
  -40.2266   52.4647   -5.4080 N   0  0  0  0  0  0  0  0  0  0  0  0
  -40.2284   51.7011   -4.3084 C   0  0  0  0  0  0  0  0  0  0  0  0
  -41.2134   50.7783   -4.0201 C   0  0  0  0  0  0  0  0  0  0  0  0
  1  3  1  0
  1  4  1  0
  2  3  2  0
  2 16  1  0
  3 14  1  0
  5  4  1  6
  4 13  2  0
  5  6  1  0
  6  8  1  0
  6 12  2  0
  7 11  2  0
  7 12  1  0
  8 10  2  0
  9 10  1  0
 10 11  1  0
 15 14  1  6
 14 18  2  0
 16 17  2  0
 17 18  1  0
M  END
$$$$
