
     RDKit          3D

 18 19  0  0  0  0  0  0  0  0999 V2000
  -68.7341    4.6394 -121.8721 N   0  0  0  0  0  0  0  0  0  0  0  0
  -68.8418    4.9543 -119.4586 C   0  0  0  0  0  0  0  0  0  0  0  0
  -69.4154    4.5031 -120.6461 C   0  0  0  0  0  0  0  0  0  0  0  0
  -67.8692    5.6290 -122.1663 C   0  0  0  0  0  0  0  0  0  0  0  0
  -66.4202    5.1911 -122.2633 C   0  0  0  0  0  0  0  0  0  0  0  0
  -65.9538    4.5796 -120.9650 C   0  0  0  0  0  0  0  0  0  0  0  0
  -66.2603    2.9867 -119.1796 C   0  0  0  0  0  0  0  0  0  0  0  0
  -64.9662    5.2127 -120.2123 C   0  0  0  0  0  0  0  0  0  0  0  0
  -63.3560    5.4832 -118.0631 Cl  0  0  0  0  0  0  0  0  0  0  0  0
  -64.6457    4.7249 -118.9576 C   0  0  0  0  0  0  0  0  0  0  0  0
  -65.2990    3.6353 -118.4151 C   0  0  0  0  0  0  0  0  0  0  0  0
  -66.5734    3.4494 -120.4474 C   0  0  0  0  0  0  0  0  0  0  0  0
  -68.2076    6.7990 -122.3173 O   0  0  0  0  0  0  0  0  0  0  0  0
  -70.6436    3.8184 -120.5939 C   0  0  0  0  0  0  0  0  0  0  0  0
  -71.3400    3.3237 -121.8343 C   0  0  0  0  0  0  0  0  0  0  0  0
  -69.3909    4.7485 -118.2568 N   0  0  0  0  0  0  0  0  0  0  0  0
  -70.5554    4.0894 -118.2158 C   0  0  0  0  0  0  0  0  0  0  0  0
  -71.2048    3.6142 -119.3372 C   0  0  0  0  0  0  0  0  0  0  0  0
  1  3  1  0
  1  4  1  0
  2  3  2  0
  2 16  1  0
  3 14  1  0
  5  4  1  6
  4 13  2  0
  5  6  1  0
  6  8  1  0
  6 12  2  0
  7 11  2  0
  7 12  1  0
  8 10  2  0
  9 10  1  0
 10 11  1  0
 15 14  1  6
 14 18  2  0
 16 17  2  0
 17 18  1  0
M  END
$$$$
