
     RDKit          3D

 18 19  0  0  0  0  0  0  0  0999 V2000
  -19.7105  -22.3210   36.1217 N   0  0  0  0  0  0  0  0  0  0  0  0
  -18.6731  -21.6707   38.2280 C   0  0  0  0  0  0  0  0  0  0  0  0
  -19.5028  -21.3771   37.1471 C   0  0  0  0  0  0  0  0  0  0  0  0
  -20.6309  -22.2069   35.1451 C   0  0  0  0  0  0  0  0  0  0  0  0
  -22.0444  -22.5600   35.5671 C   0  0  0  0  0  0  0  0  0  0  0  0
  -22.2090  -22.4305   37.0615 C   0  0  0  0  0  0  0  0  0  0  0  0
  -22.4399  -21.0460   39.0234 C   0  0  0  0  0  0  0  0  0  0  0  0
  -22.0013  -23.5370   37.8834 C   0  0  0  0  0  0  0  0  0  0  0  0
  -21.8275  -24.7858   40.2698 Cl  0  0  0  0  0  0  0  0  0  0  0  0
  -22.0131  -23.3786   39.2580 C   0  0  0  0  0  0  0  0  0  0  0  0
  -22.2014  -22.1414   39.8433 C   0  0  0  0  0  0  0  0  0  0  0  0
  -22.4555  -21.1950   37.6460 C   0  0  0  0  0  0  0  0  0  0  0  0
  -20.3583  -21.8737   33.9957 O   0  0  0  0  0  0  0  0  0  0  0  0
  -20.2110  -20.1613   37.1408 C   0  0  0  0  0  0  0  0  0  0  0  0
  -21.1058  -19.7597   35.9977 C   0  0  0  0  0  0  0  0  0  0  0  0
  -18.5307  -20.8601   39.2820 N   0  0  0  0  0  0  0  0  0  0  0  0
  -19.2143  -19.7091   39.2712 C   0  0  0  0  0  0  0  0  0  0  0  0
  -20.0509  -19.3264   38.2423 C   0  0  0  0  0  0  0  0  0  0  0  0
  1  3  1  0
  1  4  1  0
  2  3  2  0
  2 16  1  0
  3 14  1  0
  5  4  1  6
  4 13  2  0
  5  6  1  0
  6  8  1  0
  6 12  2  0
  7 11  2  0
  7 12  1  0
  8 10  2  0
  9 10  1  0
 10 11  1  0
 15 14  1  6
 14 18  2  0
 16 17  2  0
 17 18  1  0
M  END
$$$$
