
     RDKit          3D

 18 19  0  0  0  0  0  0  0  0999 V2000
 -979.8668  -72.5111-1723.2122 N   0  0  0  0  0  0  0  0  0  0  0  0
 -978.0203  -71.8107-1721.7856 C   0  0  0  0  0  0  0  0  0  0  0  0
 -978.6980  -72.8081-1722.4838 C   0  0  0  0  0  0  0  0  0  0  0  0
 -980.8999  -71.7827-1722.7469 C   0  0  0  0  0  0  0  0  0  0  0  0
 -980.4984  -70.5845-1721.9082 C   0  0  0  0  0  0  0  0  0  0  0  0
 -979.2261  -69.9630-1722.4302 C   0  0  0  0  0  0  0  0  0  0  0  0
 -977.4418  -68.3564-1722.2002 C   0  0  0  0  0  0  0  0  0  0  0  0
 -978.8151  -70.2121-1723.7382 C   0  0  0  0  0  0  0  0  0  0  0  0
 -977.1830  -69.9081-1725.8662 Cl  0  0  0  0  0  0  0  0  0  0  0  0
 -977.7288  -69.5281-1724.2550 C   0  0  0  0  0  0  0  0  0  0  0  0
 -977.0504  -68.5801-1723.5137 C   0  0  0  0  0  0  0  0  0  0  0  0
 -978.5120  -69.0522-1721.6624 C   0  0  0  0  0  0  0  0  0  0  0  0
 -982.0751  -72.0703-1722.9520 O   0  0  0  0  0  0  0  0  0  0  0  0
 -978.1450  -74.1016-1722.5342 C   0  0  0  0  0  0  0  0  0  0  0  0
 -978.8293  -75.2394-1723.2457 C   0  0  0  0  0  0  0  0  0  0  0  0
 -976.8488  -72.0124-1721.1737 N   0  0  0  0  0  0  0  0  0  0  0  0
 -976.3260  -73.2434-1721.2338 C   0  0  0  0  0  0  0  0  0  0  0  0
 -976.9269  -74.2977-1721.8910 C   0  0  0  0  0  0  0  0  0  0  0  0
  1  3  1  0
  1  4  1  0
  2  3  2  0
  2 16  1  0
  3 14  1  0
  5  4  1  6
  4 13  2  0
  5  6  1  0
  6  8  1  0
  6 12  2  0
  7 11  2  0
  7 12  1  0
  8 10  2  0
  9 10  1  0
 10 11  1  0
 15 14  1  6
 14 18  2  0
 16 17  2  0
 17 18  1  0
M  END
$$$$
