
     RDKit          3D

 18 19  0  0  0  0  0  0  0  0999 V2000
-1234.6732 -795.5282  833.9551 N   0  0  0  0  0  0  0  0  0  0  0  0
-1232.7239 -794.2740  834.7057 C   0  0  0  0  0  0  0  0  0  0  0  0
-1234.0977 -794.3575  834.4886 C   0  0  0  0  0  0  0  0  0  0  0  0
-1234.2570 -796.1486  832.8348 C   0  0  0  0  0  0  0  0  0  0  0  0
-1234.5372 -795.3879  831.5525 C   0  0  0  0  0  0  0  0  0  0  0  0
-1233.8136 -794.0640  831.5422 C   0  0  0  0  0  0  0  0  0  0  0  0
-1231.9697 -792.6994  830.7963 C   0  0  0  0  0  0  0  0  0  0  0  0
-1234.1489 -793.0796  832.4702 C   0  0  0  0  0  0  0  0  0  0  0  0
-1233.8671 -790.6745  833.6620 Cl  0  0  0  0  0  0  0  0  0  0  0  0
-1233.3889 -791.9261  832.5478 C   0  0  0  0  0  0  0  0  0  0  0  0
-1232.2830 -791.7321  831.7424 C   0  0  0  0  0  0  0  0  0  0  0  0
-1232.7375 -793.8475  830.6908 C   0  0  0  0  0  0  0  0  0  0  0  0
-1233.7186 -797.2520  832.8334 O   0  0  0  0  0  0  0  0  0  0  0  0
-1234.9209 -793.2932  834.9001 C   0  0  0  0  0  0  0  0  0  0  0  0
-1236.4110 -793.2961  834.6768 C   0  0  0  0  0  0  0  0  0  0  0  0
-1232.1422 -793.2345  835.3130 N   0  0  0  0  0  0  0  0  0  0  0  0
-1232.9330 -792.2289  835.7090 C   0  0  0  0  0  0  0  0  0  0  0  0
-1234.3013 -792.2166  835.5278 C   0  0  0  0  0  0  0  0  0  0  0  0
  1  3  1  0
  1  4  1  0
  2  3  2  0
  2 16  1  0
  3 14  1  0
  5  4  1  6
  4 13  2  0
  5  6  1  0
  6  8  1  0
  6 12  2  0
  7 11  2  0
  7 12  1  0
  8 10  2  0
  9 10  1  0
 10 11  1  0
 15 14  1  6
 14 18  2  0
 16 17  2  0
 17 18  1  0
M  END
$$$$
