
     RDKit          3D

 18 19  0  0  0  0  0  0  0  0999 V2000
   34.1566    8.7312   70.9667 N   0  0  0  0  0  0  0  0  0  0  0  0
   36.3148    9.5102   71.7858 C   0  0  0  0  0  0  0  0  0  0  0  0
   35.1784    8.7174   71.9370 C   0  0  0  0  0  0  0  0  0  0  0  0
   32.9136    8.2466   71.1508 C   0  0  0  0  0  0  0  0  0  0  0  0
   32.1614    8.8665   72.3129 C   0  0  0  0  0  0  0  0  0  0  0  0
   31.1522    9.8765   71.8246 C   0  0  0  0  0  0  0  0  0  0  0  0
   30.6523   12.0474   70.8993 C   0  0  0  0  0  0  0  0  0  0  0  0
   29.7980    9.6981   72.1025 C   0  0  0  0  0  0  0  0  0  0  0  0
   27.1989   10.4244   72.0630 Cl  0  0  0  0  0  0  0  0  0  0  0  0
   28.8967   10.6967   71.7777 C   0  0  0  0  0  0  0  0  0  0  0  0
   29.3071   11.8847   71.2045 C   0  0  0  0  0  0  0  0  0  0  0  0
   31.5619   11.0455   71.1963 C   0  0  0  0  0  0  0  0  0  0  0  0
   32.4269    7.3559   70.4607 O   0  0  0  0  0  0  0  0  0  0  0  0
   35.1075    7.8263   73.0237 C   0  0  0  0  0  0  0  0  0  0  0  0
   33.9029    6.9564   73.2708 C   0  0  0  0  0  0  0  0  0  0  0  0
   37.3629    9.4515   72.6142 N   0  0  0  0  0  0  0  0  0  0  0  0
   37.2901    8.5953   73.6407 C   0  0  0  0  0  0  0  0  0  0  0  0
   36.2037    7.7781   73.8791 C   0  0  0  0  0  0  0  0  0  0  0  0
  1  3  1  0
  1  4  1  0
  2  3  2  0
  2 16  1  0
  3 14  1  0
  5  4  1  6
  4 13  2  0
  5  6  1  0
  6  8  1  0
  6 12  2  0
  7 11  2  0
  7 12  1  0
  8 10  2  0
  9 10  1  0
 10 11  1  0
 15 14  1  6
 14 18  2  0
 16 17  2  0
 17 18  1  0
M  END
$$$$
