
     RDKit          3D

 18 19  0  0  0  0  0  0  0  0999 V2000
  -74.6534   86.5256 -112.5250 N   0  0  0  0  0  0  0  0  0  0  0  0
  -73.9837   86.6981 -110.1889 C   0  0  0  0  0  0  0  0  0  0  0  0
  -73.7299   86.9287 -111.5400 C   0  0  0  0  0  0  0  0  0  0  0  0
  -74.8449   87.1506 -113.7025 C   0  0  0  0  0  0  0  0  0  0  0  0
  -75.9869   86.5956 -114.5321 C   0  0  0  0  0  0  0  0  0  0  0  0
  -77.2925   87.2554 -114.1619 C   0  0  0  0  0  0  0  0  0  0  0  0
  -79.6773   87.1201 -113.8247 C   0  0  0  0  0  0  0  0  0  0  0  0
  -77.3751   88.6451 -114.0918 C   0  0  0  0  0  0  0  0  0  0  0  0
  -78.6782   90.9812 -113.7324 Cl  0  0  0  0  0  0  0  0  0  0  0  0
  -78.6052   89.2471 -113.8933 C   0  0  0  0  0  0  0  0  0  0  0  0
  -79.7660   88.5057 -113.7867 C   0  0  0  0  0  0  0  0  0  0  0  0
  -78.4488   86.5036 -113.9981 C   0  0  0  0  0  0  0  0  0  0  0  0
  -74.1422   88.0761 -114.0980 O   0  0  0  0  0  0  0  0  0  0  0  0
  -72.5836   87.6591 -111.9041 C   0  0  0  0  0  0  0  0  0  0  0  0
  -72.2262   87.9267 -113.3426 C   0  0  0  0  0  0  0  0  0  0  0  0
  -73.1998   87.1591 -109.2084 N   0  0  0  0  0  0  0  0  0  0  0  0
  -72.1158   87.8597 -109.5639 C   0  0  0  0  0  0  0  0  0  0  0  0
  -71.7757   88.1299 -110.8738 C   0  0  0  0  0  0  0  0  0  0  0  0
  1  3  1  0
  1  4  1  0
  2  3  2  0
  2 16  1  0
  3 14  1  0
  5  4  1  6
  4 13  2  0
  5  6  1  0
  6  8  1  0
  6 12  2  0
  7 11  2  0
  7 12  1  0
  8 10  2  0
  9 10  1  0
 10 11  1  0
 15 14  1  6
 14 18  2  0
 16 17  2  0
 17 18  1  0
M  END
$$$$
