
     RDKit          3D

 25 28  0  0  0  0  0  0  0  0999 V2000
  660.6006 -125.0995   63.5182 C   0  0  0  0  0  0  0  0  0  0  0  0
  659.0721 -124.9589   66.3155 C   0  0  0  0  0  0  0  0  0  0  0  0
  660.1226 -125.9250   66.5398 C   0  0  0  0  0  0  0  0  0  0  0  0
  658.6012 -124.1631   67.3289 C   0  0  0  0  0  0  0  0  0  0  0  0
  659.1642 -124.3026   68.6198 C   0  0  0  0  0  0  0  0  0  0  0  0
  660.6696 -126.0088   67.7877 C   0  0  0  0  0  0  0  0  0  0  0  0
  659.7823 -124.2023   70.7060 C   0  0  0  0  0  0  0  0  0  0  0  0
  660.3813 -128.7759   67.8681 C   0  0  0  0  0  0  0  0  0  0  0  0
  662.3394 -132.4637   67.0919 C   0  0  0  0  0  0  0  0  0  0  0  0
  660.5756 -126.8028   65.4449 C   0  0  0  0  0  0  0  0  0  0  0  0
  660.7593 -126.4253   64.1213 N   0  0  0  0  0  0  0  0  0  0  0  0
  661.2308 -127.5272   63.4719 C   0  0  0  0  0  0  0  0  0  0  0  0
  661.3844 -128.5595   64.2582 N   0  0  0  0  0  0  0  0  0  0  0  0
  660.9603 -128.1349   65.5105 C   0  0  0  0  0  0  0  0  0  0  0  0
  660.9525 -129.0971   66.6381 C   0  0  0  0  0  0  0  0  0  0  0  0
  661.5345 -130.2843   66.3947 N   0  0  0  0  0  0  0  0  0  0  0  0
  661.5875 -131.1989   67.3832 C   0  0  0  0  0  0  0  0  0  0  0  0
  661.0209 -130.9543   68.6407 C   0  0  0  0  0  0  0  0  0  0  0  0
  660.4056 -129.7340   68.8777 C   0  0  0  0  0  0  0  0  0  0  0  0
  659.8291 -124.1665   64.5247 C   0  0  2  0  0  0  0  0  0  0  0  0
  658.5136 -124.1027   64.1984 F   0  0  0  0  0  0  0  0  0  0  0  0
  660.2814 -122.9055   64.3367 F   0  0  0  0  0  0  0  0  0  0  0  0
  660.1893 -125.2380   68.8289 N   0  0  0  0  0  0  0  0  0  0  0  0
  658.9246 -123.6725   69.7691 N   0  0  0  0  0  0  0  0  0  0  0  0
  660.5613 -125.1655   70.1602 C   0  0  0  0  0  0  0  0  0  0  0  0
  1 11  1  6
  1 20  1  0
  2  3  1  0
  2  4  2  0
  3  6  2  0
  3 10  1  0
  4  5  1  0
  5 23  1  0
  5 24  2  0
  6 23  1  0
  7 24  1  0
  7 25  2  0
  8 15  2  0
  8 19  1  0
  9 17  1  6
 10 11  1  0
 10 14  2  0
 11 12  1  0
 12 13  2  0
 13 14  1  0
 14 15  1  0
 15 16  1  0
 16 17  2  0
 17 18  1  0
 18 19  2  0
 20 21  1  6
 20 22  1  0
 23 25  1  0
M  END
$$$$
