
     RDKit          3D

 25 28  0  0  0  0  0  0  0  0999 V2000
  103.4583 -420.1990  710.6448 C   0  0  0  0  0  0  0  0  0  0  0  0
  102.3204 -417.4244  710.3239 C   0  0  0  0  0  0  0  0  0  0  0  0
  101.1830 -418.1559  709.8148 C   0  0  0  0  0  0  0  0  0  0  0  0
  102.5247 -416.1053  710.0078 C   0  0  0  0  0  0  0  0  0  0  0  0
  101.5937 -415.4577  709.1608 C   0  0  0  0  0  0  0  0  0  0  0  0
  100.2850 -417.4919  709.0302 C   0  0  0  0  0  0  0  0  0  0  0  0
  100.3913 -414.1245  707.9278 C   0  0  0  0  0  0  0  0  0  0  0  0
   98.0744 -418.6250  709.6404 C   0  0  0  0  0  0  0  0  0  0  0  0
   95.2753 -421.8105  709.8851 C   0  0  0  0  0  0  0  0  0  0  0  0
  101.0143 -419.5867  710.1295 C   0  0  0  0  0  0  0  0  0  0  0  0
  102.0291 -420.4706  710.4715 N   0  0  0  0  0  0  0  0  0  0  0  0
  101.4245 -421.6649  710.7285 C   0  0  0  0  0  0  0  0  0  0  0  0
  100.1245 -421.6194  710.6038 N   0  0  0  0  0  0  0  0  0  0  0  0
   99.8381 -420.3196  710.2079 C   0  0  0  0  0  0  0  0  0  0  0  0
   98.4338 -419.9420  709.9203 C   0  0  0  0  0  0  0  0  0  0  0  0
   97.5415 -420.9474  709.9557 N   0  0  0  0  0  0  0  0  0  0  0  0
   96.2413 -420.6732  709.7303 C   0  0  0  0  0  0  0  0  0  0  0  0
   95.8067 -419.3766  709.4263 C   0  0  0  0  0  0  0  0  0  0  0  0
   96.7362 -418.3484  709.3731 C   0  0  0  0  0  0  0  0  0  0  0  0
  104.1665 -420.2596  709.2401 C   0  0  2  0  0  0  0  0  0  0  0  0
  105.4910 -420.5151  709.3873 F   0  0  0  0  0  0  0  0  0  0  0  0
  104.1233 -419.0159  708.7102 F   0  0  0  0  0  0  0  0  0  0  0  0
  100.4879 -416.1719  708.6756 N   0  0  0  0  0  0  0  0  0  0  0  0
  101.5255 -414.2083  708.7029 N   0  0  0  0  0  0  0  0  0  0  0  0
   99.7424 -415.3117  707.8881 C   0  0  0  0  0  0  0  0  0  0  0  0
  1 11  1  6
  1 20  1  0
  2  3  1  0
  2  4  2  0
  3  6  2  0
  3 10  1  0
  4  5  1  0
  5 23  1  0
  5 24  2  0
  6 23  1  0
  7 24  1  0
  7 25  2  0
  8 15  2  0
  8 19  1  0
  9 17  1  6
 10 11  1  0
 10 14  2  0
 11 12  1  0
 12 13  2  0
 13 14  1  0
 14 15  1  0
 15 16  1  0
 16 17  2  0
 17 18  1  0
 18 19  2  0
 20 21  1  1
 20 22  1  0
 23 25  1  0
M  END
$$$$
