
     RDKit          3D

 25 28  0  0  0  0  0  0  0  0999 V2000
  520.9568-1151.0182-1807.3575 C   0  0  0  0  0  0  0  0  0  0  0  0
  524.9139-1150.1190-1805.4677 C   0  0  0  0  0  0  0  0  0  0  0  0
  523.5375-1149.9404-1805.8684 C   0  0  0  0  0  0  0  0  0  0  0  0
  525.9247-1149.3721-1806.0193 C   0  0  0  0  0  0  0  0  0  0  0  0
  525.5983-1148.4104-1807.0034 C   0  0  0  0  0  0  0  0  0  0  0  0
  523.2535-1148.9791-1806.7942 C   0  0  0  0  0  0  0  0  0  0  0  0
  525.4992-1146.8362-1808.5063 C   0  0  0  0  0  0  0  0  0  0  0  0
  522.9903-1151.7847-1801.6246 C   0  0  0  0  0  0  0  0  0  0  0  0
  526.4932-1149.4796-1802.3004 C   0  0  0  0  0  0  0  0  0  0  0  0
  522.4772-1150.7904-1805.2964 C   0  0  0  0  0  0  0  0  0  0  0  0
  521.3425-1151.2362-1805.9612 N   0  0  0  0  0  0  0  0  0  0  0  0
  520.6704-1152.0295-1805.0797 C   0  0  0  0  0  0  0  0  0  0  0  0
  521.2786-1152.1478-1803.9294 N   0  0  0  0  0  0  0  0  0  0  0  0
  522.4173-1151.3599-1804.0319 C   0  0  0  0  0  0  0  0  0  0  0  0
  523.3148-1151.2272-1802.8594 C   0  0  0  0  0  0  0  0  0  0  0  0
  524.4469-1150.5330-1803.0687 N   0  0  0  0  0  0  0  0  0  0  0  0
  525.2991-1150.3491-1802.0399 C   0  0  0  0  0  0  0  0  0  0  0  0
  525.0482-1150.8934-1800.7744 C   0  0  0  0  0  0  0  0  0  0  0  0
  523.8870-1151.6245-1800.5712 C   0  0  0  0  0  0  0  0  0  0  0  0
  519.4578-1151.4589-1807.5510 C   0  0  2  0  0  0  0  0  0  0  0  0
  518.9045-1150.8076-1808.6053 F   0  0  0  0  0  0  0  0  0  0  0  0
  518.7630-1151.0126-1806.4794 F   0  0  0  0  0  0  0  0  0  0  0  0
  524.2592-1148.2362-1807.3834 N   0  0  0  0  0  0  0  0  0  0  0  0
  526.3484-1147.5494-1807.6907 N   0  0  0  0  0  0  0  0  0  0  0  0
  524.2178-1147.2410-1808.3439 C   0  0  0  0  0  0  0  0  0  0  0  0
  1 11  1  6
  1 20  1  0
  2  3  1  0
  2  4  2  0
  3  6  2  0
  3 10  1  0
  4  5  1  0
  5 23  1  0
  5 24  2  0
  6 23  1  0
  7 24  1  0
  7 25  2  0
  8 15  2  0
  8 19  1  0
  9 17  1  6
 10 11  1  0
 10 14  2  0
 11 12  1  0
 12 13  2  0
 13 14  1  0
 14 15  1  0
 15 16  1  0
 16 17  2  0
 17 18  1  0
 18 19  2  0
 20 21  1  6
 20 22  1  0
 23 25  1  0
M  END
$$$$
