
     RDKit          3D

 25 28  0  0  0  0  0  0  0  0999 V2000
  970.4945-2377.8872 -920.6280 C   0  0  0  0  0  0  0  0  0  0  0  0
  971.6226-2379.3955 -922.9548 C   0  0  0  0  0  0  0  0  0  0  0  0
  970.5300-2378.7751 -923.6690 C   0  0  0  0  0  0  0  0  0  0  0  0
  972.6664-2379.9895 -923.6169 C   0  0  0  0  0  0  0  0  0  0  0  0
  972.6621-2379.9897 -925.0330 C   0  0  0  0  0  0  0  0  0  0  0  0
  970.5737-2378.7620 -925.0338 C   0  0  0  0  0  0  0  0  0  0  0  0
  973.0234-2380.1716 -927.1725 C   0  0  0  0  0  0  0  0  0  0  0  0
  966.2337-2377.5791 -925.0277 C   0  0  0  0  0  0  0  0  0  0  0  0
  968.6879-2379.5532 -927.8781 C   0  0  0  0  0  0  0  0  0  0  0  0
  969.3947-2378.1895 -922.9332 C   0  0  0  0  0  0  0  0  0  0  0  0
  969.3940-2377.8237 -921.5936 N   0  0  0  0  0  0  0  0  0  0  0  0
  968.1681-2377.2820 -921.3458 C   0  0  0  0  0  0  0  0  0  0  0  0
  967.4003-2377.2463 -922.4028 N   0  0  0  0  0  0  0  0  0  0  0  0
  968.1450-2377.8308 -923.4193 C   0  0  0  0  0  0  0  0  0  0  0  0
  967.5345-2378.0002 -924.7591 C   0  0  0  0  0  0  0  0  0  0  0  0
  968.3142-2378.5886 -925.6841 N   0  0  0  0  0  0  0  0  0  0  0  0
  967.8154-2378.7991 -926.9180 C   0  0  0  0  0  0  0  0  0  0  0  0
  966.5222-2378.3899 -927.2666 C   0  0  0  0  0  0  0  0  0  0  0  0
  965.7317-2377.7666 -926.3124 C   0  0  0  0  0  0  0  0  0  0  0  0
  971.3896-2376.6033 -920.7868 C   0  0  2  0  0  0  0  0  0  0  0  0
  970.7583-2375.5181 -920.2672 F   0  0  0  0  0  0  0  0  0  0  0  0
  971.4812-2376.3335 -922.1093 F   0  0  0  0  0  0  0  0  0  0  0  0
  971.6007-2379.3801 -925.7196 N   0  0  0  0  0  0  0  0  0  0  0  0
  973.5276-2380.4661 -925.9266 N   0  0  0  0  0  0  0  0  0  0  0  0
  971.8445-2379.5151 -927.0754 C   0  0  0  0  0  0  0  0  0  0  0  0
  1 11  1  6
  1 20  1  0
  2  3  1  0
  2  4  2  0
  3  6  2  0
  3 10  1  0
  4  5  1  0
  5 23  1  0
  5 24  2  0
  6 23  1  0
  7 24  1  0
  7 25  2  0
  8 15  2  0
  8 19  1  0
  9 17  1  6
 10 11  1  0
 10 14  2  0
 11 12  1  0
 12 13  2  0
 13 14  1  0
 14 15  1  0
 15 16  1  0
 16 17  2  0
 17 18  1  0
 18 19  2  0
 20 21  1  1
 20 22  1  0
 23 25  1  0
M  END
$$$$
