
     RDKit          3D

 25 28  0  0  0  0  0  0  0  0999 V2000
 -815.0162  401.5747  257.8392 C   0  0  0  0  0  0  0  0  0  0  0  0
 -814.2341  404.5249  255.8902 C   0  0  0  0  0  0  0  0  0  0  0  0
 -815.4908  403.8443  255.6796 C   0  0  0  0  0  0  0  0  0  0  0  0
 -814.1737  405.8852  256.0576 C   0  0  0  0  0  0  0  0  0  0  0  0
 -815.3783  406.6279  256.0193 C   0  0  0  0  0  0  0  0  0  0  0  0
 -816.6368  404.5854  255.6848 C   0  0  0  0  0  0  0  0  0  0  0  0
 -816.9886  408.0939  256.0500 C   0  0  0  0  0  0  0  0  0  0  0  0
 -815.6228  401.5671  251.7886 C   0  0  0  0  0  0  0  0  0  0  0  0
 -818.0356  405.0589  251.6313 C   0  0  0  0  0  0  0  0  0  0  0  0
 -815.5218  402.3874  255.4523 C   0  0  0  0  0  0  0  0  0  0  0  0
 -815.2905  401.4086  256.4096 N   0  0  0  0  0  0  0  0  0  0  0  0
 -815.4702  400.2116  255.7827 C   0  0  0  0  0  0  0  0  0  0  0  0
 -815.8138  400.3359  254.5281 N   0  0  0  0  0  0  0  0  0  0  0  0
 -815.8372  401.7031  254.2865 C   0  0  0  0  0  0  0  0  0  0  0  0
 -816.1407  402.1929  252.9208 C   0  0  0  0  0  0  0  0  0  0  0  0
 -816.9359  403.2753  252.8537 N   0  0  0  0  0  0  0  0  0  0  0  0
 -817.2328  403.7918  251.6447 C   0  0  0  0  0  0  0  0  0  0  0  0
 -816.7626  403.2076  250.4615 C   0  0  0  0  0  0  0  0  0  0  0  0
 -815.9583  402.0805  250.5387 C   0  0  0  0  0  0  0  0  0  0  0  0
 -813.9907  400.4712  258.2969 C   0  0  2  0  0  0  0  0  0  0  0  0
 -814.6462  399.3881  258.7845 F   0  0  0  0  0  0  0  0  0  0  0  0
 -813.3168  400.9612  259.3625 F   0  0  0  0  0  0  0  0  0  0  0  0
 -816.5958  405.9597  255.8220 N   0  0  0  0  0  0  0  0  0  0  0  0
 -815.6270  407.9292  256.1615 N   0  0  0  0  0  0  0  0  0  0  0  0
 -817.6044  406.9077  255.8348 C   0  0  0  0  0  0  0  0  0  0  0  0
  1 11  1  6
  1 20  1  0
  2  3  1  0
  2  4  2  0
  3  6  2  0
  3 10  1  0
  4  5  1  0
  5 23  1  0
  5 24  2  0
  6 23  1  0
  7 24  1  0
  7 25  2  0
  8 15  2  0
  8 19  1  0
  9 17  1  6
 10 11  1  0
 10 14  2  0
 11 12  1  0
 12 13  2  0
 13 14  1  0
 14 15  1  0
 15 16  1  0
 16 17  2  0
 17 18  1  0
 18 19  2  0
 20 21  1  1
 20 22  1  0
 23 25  1  0
M  END
$$$$
