
     RDKit          3D

 25 28  0  0  0  0  0  0  0  0999 V2000
-1013.4149 -157.1623 -675.2056 C   0  0  0  0  0  0  0  0  0  0  0  0
-1014.0458 -161.2409 -676.2026 C   0  0  0  0  0  0  0  0  0  0  0  0
-1014.3311 -159.8726 -676.5681 C   0  0  0  0  0  0  0  0  0  0  0  0
-1015.0266 -162.0788 -675.7366 C   0  0  0  0  0  0  0  0  0  0  0  0
-1016.3450 -161.5785 -675.6140 C   0  0  0  0  0  0  0  0  0  0  0  0
-1015.6193 -159.4327 -676.4725 C   0  0  0  0  0  0  0  0  0  0  0  0
-1018.4673 -161.1953 -675.3123 C   0  0  0  0  0  0  0  0  0  0  0  0
-1013.1141 -160.2447 -680.2044 C   0  0  0  0  0  0  0  0  0  0  0  0
-1010.2296 -163.2612 -679.4164 C   0  0  0  0  0  0  0  0  0  0  0  0
-1013.2478 -158.9789 -677.0186 C   0  0  0  0  0  0  0  0  0  0  0  0
-1012.8757 -157.7836 -676.4178 N   0  0  0  0  0  0  0  0  0  0  0  0
-1011.8065 -157.3184 -677.1248 C   0  0  0  0  0  0  0  0  0  0  0  0
-1011.4518 -158.1117 -678.1005 N   0  0  0  0  0  0  0  0  0  0  0  0
-1012.3586 -159.1631 -678.0682 C   0  0  0  0  0  0  0  0  0  0  0  0
-1012.2703 -160.2282 -679.0953 C   0  0  0  0  0  0  0  0  0  0  0  0
-1011.3349 -161.1694 -678.8795 N   0  0  0  0  0  0  0  0  0  0  0  0
-1011.2156 -162.1839 -679.7588 C   0  0  0  0  0  0  0  0  0  0  0  0
-1012.0167 -162.2586 -680.9056 C   0  0  0  0  0  0  0  0  0  0  0  0
-1012.9668 -161.2736 -681.1304 C   0  0  0  0  0  0  0  0  0  0  0  0
-1013.8026 -155.6703 -675.5226 C   0  0  2  0  0  0  0  0  0  0  0  0
-1014.0974 -155.0031 -674.3784 F   0  0  0  0  0  0  0  0  0  0  0  0
-1014.9697 -155.6914 -676.2067 F   0  0  0  0  0  0  0  0  0  0  0  0
-1016.6167 -160.2508 -675.9775 N   0  0  0  0  0  0  0  0  0  0  0  0
-1017.4802 -162.1488 -675.2124 N   0  0  0  0  0  0  0  0  0  0  0  0
-1017.9666 -160.0241 -675.7700 C   0  0  0  0  0  0  0  0  0  0  0  0
  1 11  1  6
  1 20  1  0
  2  3  1  0
  2  4  2  0
  3  6  2  0
  3 10  1  0
  4  5  1  0
  5 23  1  0
  5 24  2  0
  6 23  1  0
  7 24  1  0
  7 25  2  0
  8 15  2  0
  8 19  1  0
  9 17  1  6
 10 11  1  0
 10 14  2  0
 11 12  1  0
 12 13  2  0
 13 14  1  0
 14 15  1  0
 15 16  1  0
 16 17  2  0
 17 18  1  0
 18 19  2  0
 20 21  1  1
 20 22  1  0
 23 25  1  0
M  END
$$$$
