
     RDKit          3D

 16 17  0  0  0  0  0  0  0  0999 V2000
   -2.6575  216.0713 -402.4422 N   0  0  0  0  0  0  0  0  0  0  0  0
   -1.1257  216.3760 -406.3754 C   0  0  0  0  0  0  0  0  0  0  0  0
   -1.9201  216.3473 -407.5167 C   0  0  0  0  0  0  0  0  0  0  0  0
   -1.3541  216.3785 -408.7762 C   0  0  0  0  0  0  0  0  0  0  0  0
   -1.1653  215.2651 -404.1861 C   0  0  0  0  0  0  0  0  0  0  0  0
   -2.2321  214.8766 -403.1933 C   0  0  0  0  0  0  0  0  0  0  0  0
   -2.1697  217.4757 -404.4020 C   0  0  0  0  0  0  0  0  0  0  0  0
   -0.2326  215.7303 -411.4009 O   0  0  0  0  0  0  0  0  0  0  0  0
    0.7500  216.2832 -410.5102 S   0  0  1  0  0  0  0  0  0  0  0  0
    2.0021  215.5961 -410.3748 O   0  0  0  0  0  0  0  0  0  0  0  0
    1.0700  217.9382 -410.9914 C   0  0  0  0  0  0  0  0  0  0  0  0
    0.0232  216.4255 -408.9042 C   0  0  0  0  0  0  0  0  0  0  0  0
    0.2596  216.4655 -406.5260 C   0  0  0  0  0  0  0  0  0  0  0  0
    0.8351  216.4923 -407.7841 C   0  0  0  0  0  0  0  0  0  0  0  0
   -1.7036  216.2711 -405.1040 N   0  0  0  0  0  0  0  0  0  0  0  0
   -3.1929  217.1149 -403.3427 C   0  0  0  0  0  0  0  0  0  0  0  0
  1  6  1  6
  1 16  1  0
  2  3  2  0
  2 13  1  0
  2 15  1  0
  3  4  1  0
  4 12  2  0
  6  5  1  1
  5 15  1  1
  7 15  1  6
 16  7  1  1
  8  9  2  0
  9 10  2  0
 11  9  1  6
  9 12  1  1
 12 14  1  0
 13 14  2  0
M  CHG  1   1   1
M  END
$$$$
