
     RDKit          3D

 16 17  0  0  0  0  0  0  0  0999 V2000
  490.0645 -323.3972 -587.4430 N   0  0  0  0  0  0  0  0  0  0  0  0
  493.0442 -320.4182 -587.0491 C   0  0  0  0  0  0  0  0  0  0  0  0
  493.5688 -319.7167 -588.1292 C   0  0  0  0  0  0  0  0  0  0  0  0
  494.6154 -318.8315 -587.9596 C   0  0  0  0  0  0  0  0  0  0  0  0
  492.4106 -322.7810 -587.2601 C   0  0  0  0  0  0  0  0  0  0  0  0
  491.3937 -323.5574 -588.0588 C   0  0  0  0  0  0  0  0  0  0  0  0
  490.6984 -321.1528 -586.6611 C   0  0  0  0  0  0  0  0  0  0  0  0
  496.2364 -316.2799 -586.6754 O   0  0  0  0  0  0  0  0  0  0  0  0
  496.6104 -317.6578 -586.5152 S   0  0  1  0  0  0  0  0  0  0  0  0
  497.6263 -318.1871 -587.3790 O   0  0  0  0  0  0  0  0  0  0  0  0
  497.1034 -317.9120 -584.8524 C   0  0  0  0  0  0  0  0  0  0  0  0
  495.1584 -318.6505 -586.6992 C   0  0  0  0  0  0  0  0  0  0  0  0
  493.5785 -320.1901 -585.7794 C   0  0  0  0  0  0  0  0  0  0  0  0
  494.6303 -319.3091 -585.6014 C   0  0  0  0  0  0  0  0  0  0  0  0
  492.0318 -321.3665 -587.2415 N   0  0  0  0  0  0  0  0  0  0  0  0
  489.6576 -321.9764 -587.3936 C   0  0  0  0  0  0  0  0  0  0  0  0
  1  6  1  6
  1 16  1  0
  2  3  2  0
  2 13  1  0
  2 15  1  0
  3  4  1  0
  4 12  2  0
  6  5  1  1
  5 15  1  1
  7 15  1  6
 16  7  1  1
  8  9  2  0
  9 10  2  0
 11  9  1  6
  9 12  1  1
 12 14  1  0
 13 14  2  0
M  CHG  1   1   1
M  END
$$$$
