
     RDKit          3D

 16 17  0  0  0  0  0  0  0  0999 V2000
  154.4714 -169.7784   41.4389 N   0  0  0  0  0  0  0  0  0  0  0  0
  156.4305 -166.5098   43.2796 C   0  0  0  0  0  0  0  0  0  0  0  0
  157.3109 -165.7545   42.5124 C   0  0  0  0  0  0  0  0  0  0  0  0
  158.0715 -164.7536   43.0846 C   0  0  0  0  0  0  0  0  0  0  0  0
  155.8149 -167.7585   41.2569 C   0  0  0  0  0  0  0  0  0  0  0  0
  154.5812 -168.4725   40.7645 C   0  0  0  0  0  0  0  0  0  0  0  0
  155.5774 -168.8430   43.4272 C   0  0  0  0  0  0  0  0  0  0  0  0
  159.6115 -163.9619   46.3855 O   0  0  0  0  0  0  0  0  0  0  0  0
  159.0679 -163.3528   45.2032 S   0  0  1  0  0  0  0  0  0  0  0  0
  158.3784 -162.1025   45.3429 O   0  0  0  0  0  0  0  0  0  0  0  0
  160.3600 -163.1508   44.0360 C   0  0  0  0  0  0  0  0  0  0  0  0
  157.9657 -164.5079   44.4426 C   0  0  0  0  0  0  0  0  0  0  0  0
  156.3080 -166.2184   44.6397 C   0  0  0  0  0  0  0  0  0  0  0  0
  157.0695 -165.2207   45.2218 C   0  0  0  0  0  0  0  0  0  0  0  0
  155.7171 -167.5698   42.7060 N   0  0  0  0  0  0  0  0  0  0  0  0
  154.3865 -169.6242   42.9072 C   0  0  0  0  0  0  0  0  0  0  0  0
  1  6  1  6
  1 16  1  0
  2  3  2  0
  2 13  1  0
  2 15  1  0
  3  4  1  0
  4 12  2  0
  6  5  1  1
  5 15  1  1
  7 15  1  6
 16  7  1  1
  8  9  2  0
  9 10  2  0
 11  9  1  6
  9 12  1  6
 12 14  1  0
 13 14  2  0
M  CHG  1   1   1
M  END
$$$$
