
     RDKit          3D

 16 17  0  0  0  0  0  0  0  0999 V2000
  534.2709 -250.6122   29.0049 N   0  0  0  0  0  0  0  0  0  0  0  0
  530.0814 -251.1927   29.1468 C   0  0  0  0  0  0  0  0  0  0  0  0
  529.3260 -251.2815   27.9824 C   0  0  0  0  0  0  0  0  0  0  0  0
  527.9593 -251.4734   28.0360 C   0  0  0  0  0  0  0  0  0  0  0  0
  532.2943 -251.3868   30.1928 C   0  0  0  0  0  0  0  0  0  0  0  0
  533.5278 -250.5228   30.2746 C   0  0  0  0  0  0  0  0  0  0  0  0
  532.1585 -250.9683   27.7950 C   0  0  0  0  0  0  0  0  0  0  0  0
  525.0654 -251.7070   27.9898 O   0  0  0  0  0  0  0  0  0  0  0  0
  525.5647 -251.6295   29.3345 S   0  0  1  0  0  0  0  0  0  0  0  0
  525.1107 -250.5500   30.1633 O   0  0  0  0  0  0  0  0  0  0  0  0
  525.2157 -253.1429   30.1471 C   0  0  0  0  0  0  0  0  0  0  0  0
  527.3309 -251.5653   29.2658 C   0  0  0  0  0  0  0  0  0  0  0  0
  529.4341 -251.3297   30.3766 C   0  0  0  0  0  0  0  0  0  0  0  0
  528.0645 -251.5173   30.4395 C   0  0  0  0  0  0  0  0  0  0  0  0
  531.4545 -250.9260   29.0847 N   0  0  0  0  0  0  0  0  0  0  0  0
  533.4449 -250.1681   27.8615 C   0  0  0  0  0  0  0  0  0  0  0  0
  1  6  1  6
  1 16  1  0
  2  3  2  0
  2 13  1  0
  2 15  1  0
  3  4  1  0
  4 12  2  0
  6  5  1  1
  5 15  1  1
  7 15  1  6
 16  7  1  1
  8  9  2  0
  9 10  2  0
 11  9  1  6
  9 12  1  6
 12 14  1  0
 13 14  2  0
M  CHG  1   1   1
M  END
$$$$
