
     RDKit          3D

 16 17  0  0  0  0  0  0  0  0999 V2000
  -95.8020  -60.3349  248.7634 N   0  0  0  0  0  0  0  0  0  0  0  0
  -98.1155  -63.7818  249.5862 C   0  0  0  0  0  0  0  0  0  0  0  0
  -97.5415  -64.7607  250.3902 C   0  0  0  0  0  0  0  0  0  0  0  0
  -98.2085  -65.9403  250.6575 C   0  0  0  0  0  0  0  0  0  0  0  0
  -96.9795  -61.7461  250.3572 C   0  0  0  0  0  0  0  0  0  0  0  0
  -96.8132  -60.3408  249.8356 C   0  0  0  0  0  0  0  0  0  0  0  0
  -96.4407  -62.6301  248.1503 C   0  0  0  0  0  0  0  0  0  0  0  0
  -99.2006  -68.7327  250.3857 O   0  0  0  0  0  0  0  0  0  0  0  0
 -100.2317  -67.7358  250.3014 S   0  0  1  0  0  0  0  0  0  0  0  0
 -101.2259  -67.8765  249.2768 O   0  0  0  0  0  0  0  0  0  0  0  0
 -101.0395  -67.6368  251.8540 C   0  0  0  0  0  0  0  0  0  0  0  0
  -99.4598  -66.1566  250.1068 C   0  0  0  0  0  0  0  0  0  0  0  0
  -99.3959  -64.0017  249.0743 C   0  0  0  0  0  0  0  0  0  0  0  0
 -100.0691  -65.1825  249.3332 C   0  0  0  0  0  0  0  0  0  0  0  0
  -97.4029  -62.6207  249.2615 N   0  0  0  0  0  0  0  0  0  0  0  0
  -96.1922  -61.2219  247.6461 C   0  0  0  0  0  0  0  0  0  0  0  0
  1  6  1  6
  1 16  1  0
  2  3  2  0
  2 13  1  0
  2 15  1  0
  3  4  1  0
  4 12  2  0
  6  5  1  1
  5 15  1  1
  7 15  1  6
 16  7  1  1
  8  9  2  0
  9 10  2  0
 11  9  1  6
  9 12  1  6
 12 14  1  0
 13 14  2  0
M  CHG  1   1   1
M  END
$$$$
