
     RDKit          3D

 16 17  0  0  0  0  0  0  0  0999 V2000
 -292.9707 -289.7841  -80.5527 N   0  0  0  0  0  0  0  0  0  0  0  0
 -296.9500 -290.8675  -81.5018 C   0  0  0  0  0  0  0  0  0  0  0  0
 -297.3755 -292.1873  -81.6088 C   0  0  0  0  0  0  0  0  0  0  0  0
 -298.6566 -292.4881  -82.0286 C   0  0  0  0  0  0  0  0  0  0  0  0
 -294.6860 -290.2411  -82.2162 C   0  0  0  0  0  0  0  0  0  0  0  0
 -293.2843 -290.5645  -81.7631 C   0  0  0  0  0  0  0  0  0  0  0  0
 -295.3429 -289.8414  -79.9030 C   0  0  0  0  0  0  0  0  0  0  0  0
 -301.3519 -293.2504  -82.8551 O   0  0  0  0  0  0  0  0  0  0  0  0
 -301.0980 -291.8519  -83.0666 S   0  0  1  0  0  0  0  0  0  0  0  0
 -301.1180 -291.3576  -84.4132 O   0  0  0  0  0  0  0  0  0  0  0  0
 -302.2437 -290.9272  -82.1151 C   0  0  0  0  0  0  0  0  0  0  0  0
 -299.5247 -291.4622  -82.3596 C   0  0  0  0  0  0  0  0  0  0  0  0
 -297.8543 -289.8462  -81.8008 C   0  0  0  0  0  0  0  0  0  0  0  0
 -299.1382 -290.1389  -82.2264 C   0  0  0  0  0  0  0  0  0  0  0  0
 -295.6282 -290.5733  -81.1452 N   0  0  0  0  0  0  0  0  0  0  0  0
 -293.9147 -290.0847  -79.4549 C   0  0  0  0  0  0  0  0  0  0  0  0
  1  6  1  6
  1 16  1  0
  2  3  2  0
  2 13  1  0
  2 15  1  0
  3  4  1  0
  4 12  2  0
  6  5  1  1
  5 15  1  1
  7 15  1  6
 16  7  1  1
  8  9  2  0
  9 10  2  0
 11  9  1  6
  9 12  1  1
 12 14  1  0
 13 14  2  0
M  CHG  1   1   1
M  END
$$$$
