
     RDKit          3D

 16 17  0  0  0  0  0  0  0  0999 V2000
 -596.1098 -885.4750  134.5142 N   0  0  0  0  0  0  0  0  0  0  0  0
 -593.6381 -887.3706  131.6499 C   0  0  0  0  0  0  0  0  0  0  0  0
 -594.1688 -888.4371  130.9321 C   0  0  0  0  0  0  0  0  0  0  0  0
 -593.3812 -889.1730  130.0686 C   0  0  0  0  0  0  0  0  0  0  0  0
 -595.8678 -886.9272  132.5779 C   0  0  0  0  0  0  0  0  0  0  0  0
 -596.5814 -885.7236  133.1403 C   0  0  0  0  0  0  0  0  0  0  0  0
 -593.9058 -886.3939  133.9229 C   0  0  0  0  0  0  0  0  0  0  0  0
 -591.5068 -889.9349  127.6180 O   0  0  0  0  0  0  0  0  0  0  0  0
 -590.9976 -889.9049  128.9611 S   0  0  1  0  0  0  0  0  0  0  0  0
 -590.8537 -891.1515  129.6569 O   0  0  0  0  0  0  0  0  0  0  0  0
 -589.4471 -889.0878  128.9516 C   0  0  0  0  0  0  0  0  0  0  0  0
 -592.0425 -888.8532  129.9255 C   0  0  0  0  0  0  0  0  0  0  0  0
 -592.2950 -887.0380  131.4601 C   0  0  0  0  0  0  0  0  0  0  0  0
 -591.4981 -887.7733  130.6004 C   0  0  0  0  0  0  0  0  0  0  0  0
 -594.4249 -886.6758  132.5768 N   0  0  0  0  0  0  0  0  0  0  0  0
 -594.6518 -885.2324  134.5508 C   0  0  0  0  0  0  0  0  0  0  0  0
  1  6  1  6
  1 16  1  0
  2  3  2  0
  2 13  1  0
  2 15  1  0
  3  4  1  0
  4 12  2  0
  6  5  1  1
  5 15  1  1
  7 15  1  6
 16  7  1  1
  8  9  2  0
  9 10  2  0
 11  9  1  6
  9 12  1  1
 12 14  1  0
 13 14  2  0
M  CHG  1   1   1
M  END
$$$$
