
     RDKit          3D

 16 17  0  0  0  0  0  0  0  0999 V2000
 1409.3132 -261.4129 -166.3628 N   0  0  0  0  0  0  0  0  0  0  0  0
 1411.3478 -262.0547 -170.0171 C   0  0  0  0  0  0  0  0  0  0  0  0
 1412.5095 -262.8189 -170.0626 C   0  0  0  0  0  0  0  0  0  0  0  0
 1413.1720 -263.0319 -171.2555 C   0  0  0  0  0  0  0  0  0  0  0  0
 1409.2653 -261.6440 -168.7839 C   0  0  0  0  0  0  0  0  0  0  0  0
 1408.8561 -260.7833 -167.6145 C   0  0  0  0  0  0  0  0  0  0  0  0
 1411.2356 -262.3827 -167.5531 C   0  0  0  0  0  0  0  0  0  0  0  0
 1413.2985 -263.8332 -174.5482 O   0  0  0  0  0  0  0  0  0  0  0  0
 1413.6271 -262.5891 -173.9087 S   0  0  1  0  0  0  0  0  0  0  0  0
 1415.0027 -262.3372 -173.5874 O   0  0  0  0  0  0  0  0  0  0  0  0
 1413.0371 -261.2759 -174.9087 C   0  0  0  0  0  0  0  0  0  0  0  0
 1412.6814 -262.4662 -172.4193 C   0  0  0  0  0  0  0  0  0  0  0  0
 1410.8464 -261.5275 -171.2089 C   0  0  0  0  0  0  0  0  0  0  0  0
 1411.5071 -261.7325 -172.4076 C   0  0  0  0  0  0  0  0  0  0  0  0
 1410.7227 -261.7837 -168.7939 N   0  0  0  0  0  0  0  0  0  0  0  0
 1410.7817 -261.5828 -166.3465 C   0  0  0  0  0  0  0  0  0  0  0  0
  1  6  1  6
  1 16  1  0
  2  3  2  0
  2 13  1  0
  2 15  1  0
  3  4  1  0
  4 12  2  0
  6  5  1  1
  5 15  1  1
  7 15  1  6
 16  7  1  1
  8  9  2  0
  9 10  2  0
 11  9  1  6
  9 12  1  1
 12 14  1  0
 13 14  2  0
M  CHG  1   1   1
M  END
$$$$
