
     RDKit          3D

 16 17  0  0  0  0  0  0  0  0999 V2000
   45.8669 -568.8849 -234.3903 N   0  0  0  0  0  0  0  0  0  0  0  0
   46.0618 -566.6477 -237.9774 C   0  0  0  0  0  0  0  0  0  0  0  0
   47.1799 -565.9196 -238.3701 C   0  0  0  0  0  0  0  0  0  0  0  0
   47.1649 -565.1649 -239.5268 C   0  0  0  0  0  0  0  0  0  0  0  0
   44.8205 -567.3790 -235.9890 C   0  0  0  0  0  0  0  0  0  0  0  0
   45.1503 -567.6052 -234.5350 C   0  0  0  0  0  0  0  0  0  0  0  0
   46.8306 -568.5972 -236.6353 C   0  0  0  0  0  0  0  0  0  0  0  0
   45.6551 -562.6993 -241.1811 O   0  0  0  0  0  0  0  0  0  0  0  0
   45.9393 -564.0174 -241.6773 S   0  0  1  0  0  0  0  0  0  0  0  0
   45.0488 -564.5795 -242.6514 O   0  0  0  0  0  0  0  0  0  0  0  0
   47.5644 -564.0269 -242.3346 C   0  0  0  0  0  0  0  0  0  0  0  0
   46.0169 -565.1224 -240.2988 C   0  0  0  0  0  0  0  0  0  0  0  0
   44.9280 -566.6248 -238.7919 C   0  0  0  0  0  0  0  0  0  0  0  0
   44.9027 -565.8679 -239.9500 C   0  0  0  0  0  0  0  0  0  0  0  0
   46.0613 -567.3519 -236.7668 N   0  0  0  0  0  0  0  0  0  0  0  0
   47.1191 -568.8964 -235.1770 C   0  0  0  0  0  0  0  0  0  0  0  0
  1  6  1  6
  1 16  1  0
  2  3  2  0
  2 13  1  0
  2 15  1  0
  3  4  1  0
  4 12  2  0
  6  5  1  1
  5 15  1  1
  7 15  1  6
 16  7  1  1
  8  9  2  0
  9 10  2  0
 11  9  1  6
  9 12  1  1
 12 14  1  0
 13 14  2  0
M  CHG  1   1   1
M  END
$$$$
