
     RDKit          3D

 19 20  0  0  0  0  0  0  0  0999 V2000
   92.9378 -199.3854  202.8486 N   0  0  0  0  0  0  0  0  0  0  0  0
   92.5150 -201.7470  203.3447 C   0  0  0  0  0  0  0  0  0  0  0  0
   92.4203 -200.3952  203.6824 C   0  0  0  0  0  0  0  0  0  0  0  0
   92.6590 -199.2486  201.5404 C   0  0  0  0  0  0  0  0  0  0  0  0
   91.6604 -198.1542  201.2213 C   0  0  0  0  0  0  0  0  0  0  0  0
   92.3584 -197.0460  200.4686 C   0  0  0  0  0  0  0  0  0  0  0  0
   92.2918 -194.9074  199.3508 C   0  0  0  0  0  0  0  0  0  0  0  0
   95.7141 -196.3276  199.0069 C   0  0  0  0  0  0  0  0  0  0  0  0
   96.8221 -196.4071  198.7404 N   0  0  0  0  0  0  0  0  0  0  0  0
   94.3222 -196.1907  199.3512 C   0  0  0  0  0  0  0  0  0  0  0  0
   93.6144 -195.0535  198.9688 C   0  0  0  0  0  0  0  0  0  0  0  0
   91.6707 -195.8968  200.0957 C   0  0  0  0  0  0  0  0  0  0  0  0
   93.6938 -197.1857  200.0976 C   0  0  0  0  0  0  0  0  0  0  0  0
   93.1889 -199.9176  200.6585 O   0  0  0  0  0  0  0  0  0  0  0  0
   91.7877 -200.0399  204.8833 C   0  0  0  0  0  0  0  0  0  0  0  0
   91.6065 -198.5995  205.2923 C   0  0  0  0  0  0  0  0  0  0  0  0
   92.0286 -202.7307  204.1108 N   0  0  0  0  0  0  0  0  0  0  0  0
   91.4365 -202.3809  205.2581 C   0  0  0  0  0  0  0  0  0  0  0  0
   91.2912 -201.0719  205.6739 C   0  0  0  0  0  0  0  0  0  0  0  0
  1  3  1  0
  1  4  1  0
  2  3  2  0
  2 17  1  0
  3 15  1  0
  5  4  1  6
  4 14  2  0
  5  6  1  0
  6 12  2  0
  6 13  1  0
  7 11  2  0
  7 12  1  0
  8  9  3  0
  8 10  1  0
 10 11  1  0
 10 13  2  0
 16 15  1  6
 15 19  2  0
 17 18  2  0
 18 19  1  0
M  END
$$$$
