
     RDKit          3D

 19 20  0  0  0  0  0  0  0  0999 V2000
   75.0360   33.7885  -68.6488 N   0  0  0  0  0  0  0  0  0  0  0  0
   76.5922   32.1743  -69.6359 C   0  0  0  0  0  0  0  0  0  0  0  0
   75.4454   32.9672  -69.7167 C   0  0  0  0  0  0  0  0  0  0  0  0
   75.2084   35.1207  -68.5916 C   0  0  0  0  0  0  0  0  0  0  0  0
   76.2932   35.6544  -69.5053 C   0  0  0  0  0  0  0  0  0  0  0  0
   76.0288   35.1894  -70.9181 C   0  0  0  0  0  0  0  0  0  0  0  0
   74.5427   34.9691  -72.8075 C   0  0  0  0  0  0  0  0  0  0  0  0
   77.7422   33.2414  -73.5980 C   0  0  0  0  0  0  0  0  0  0  0  0
   78.5443   32.6402  -74.1462 N   0  0  0  0  0  0  0  0  0  0  0  0
   76.7256   33.9699  -72.8837 C   0  0  0  0  0  0  0  0  0  0  0  0
   75.4933   34.2220  -73.4821 C   0  0  0  0  0  0  0  0  0  0  0  0
   74.8107   35.4489  -71.5358 C   0  0  0  0  0  0  0  0  0  0  0  0
   76.9911   34.4511  -71.6030 C   0  0  0  0  0  0  0  0  0  0  0  0
   74.5268   35.8653  -67.8935 O   0  0  0  0  0  0  0  0  0  0  0  0
   74.6880   32.9440  -70.8976 C   0  0  0  0  0  0  0  0  0  0  0  0
   73.4644   33.8074  -71.0760 C   0  0  0  0  0  0  0  0  0  0  0  0
   77.0126   31.3878  -70.6340 N   0  0  0  0  0  0  0  0  0  0  0  0
   76.2773   31.3660  -71.7510 C   0  0  0  0  0  0  0  0  0  0  0  0
   75.1321   32.1181  -71.9256 C   0  0  0  0  0  0  0  0  0  0  0  0
  1  3  1  0
  1  4  1  0
  2  3  2  0
  2 17  1  0
  3 15  1  0
  5  4  1  6
  4 14  2  0
  5  6  1  0
  6 12  2  0
  6 13  1  0
  7 11  2  0
  7 12  1  0
  8  9  3  0
  8 10  1  0
 10 11  1  0
 10 13  2  0
 16 15  1  6
 15 19  2  0
 17 18  2  0
 18 19  1  0
M  END
$$$$
