
     RDKit          3D

 19 20  0  0  0  0  0  0  0  0999 V2000
   56.5979  -83.2164  -20.3372 N   0  0  0  0  0  0  0  0  0  0  0  0
   54.4247  -83.4328  -21.4471 C   0  0  0  0  0  0  0  0  0  0  0  0
   55.4056  -83.9239  -20.5829 C   0  0  0  0  0  0  0  0  0  0  0  0
   57.1544  -82.3286  -21.1798 C   0  0  0  0  0  0  0  0  0  0  0  0
   56.1838  -81.6927  -22.1545 C   0  0  0  0  0  0  0  0  0  0  0  0
   56.8184  -80.4625  -22.7594 C   0  0  0  0  0  0  0  0  0  0  0  0
   56.8881  -78.7730  -24.4821 C   0  0  0  0  0  0  0  0  0  0  0  0
   59.7991  -78.2872  -22.2156 C   0  0  0  0  0  0  0  0  0  0  0  0
   60.7586  -77.8687  -21.7578 N   0  0  0  0  0  0  0  0  0  0  0  0
   58.6098  -78.8424  -22.8086 C   0  0  0  0  0  0  0  0  0  0  0  0
   58.0613  -78.2643  -23.9511 C   0  0  0  0  0  0  0  0  0  0  0  0
   56.2726  -79.8631  -23.8888 C   0  0  0  0  0  0  0  0  0  0  0  0
   57.9901  -79.9410  -22.2159 C   0  0  0  0  0  0  0  0  0  0  0  0
   58.3407  -82.0153  -21.1514 O   0  0  0  0  0  0  0  0  0  0  0  0
   55.1895  -85.1531  -19.9419 C   0  0  0  0  0  0  0  0  0  0  0  0
   56.1814  -85.7246  -18.9601 C   0  0  0  0  0  0  0  0  0  0  0  0
   53.2782  -84.0763  -21.6977 N   0  0  0  0  0  0  0  0  0  0  0  0
   53.0873  -85.2519  -21.0888 C   0  0  0  0  0  0  0  0  0  0  0  0
   53.9964  -85.8153  -20.2148 C   0  0  0  0  0  0  0  0  0  0  0  0
  1  3  1  0
  1  4  1  0
  2  3  2  0
  2 17  1  0
  3 15  1  0
  5  4  1  6
  4 14  2  0
  5  6  1  0
  6 12  2  0
  6 13  1  0
  7 11  2  0
  7 12  1  0
  8  9  3  0
  8 10  1  0
 10 11  1  0
 10 13  2  0
 16 15  1  6
 15 19  2  0
 17 18  2  0
 18 19  1  0
M  END
$$$$
