
     RDKit          3D

 19 20  0  0  0  0  0  0  0  0999 V2000
  -26.9833   40.7403   27.6346 N   0  0  0  0  0  0  0  0  0  0  0  0
  -27.3083   41.5755   29.9147 C   0  0  0  0  0  0  0  0  0  0  0  0
  -27.2548   40.5225   28.9989 C   0  0  0  0  0  0  0  0  0  0  0  0
  -27.4793   41.7531   26.9025 C   0  0  0  0  0  0  0  0  0  0  0  0
  -26.4303   42.6210   26.2371 C   0  0  0  0  0  0  0  0  0  0  0  0
  -26.5855   42.5296   24.7372 C   0  0  0  0  0  0  0  0  0  0  0  0
  -26.1979   43.4319   22.5321 C   0  0  0  0  0  0  0  0  0  0  0  0
  -28.3159   40.3883   22.2207 C   0  0  0  0  0  0  0  0  0  0  0  0
  -28.9068   39.5368   21.7400 N   0  0  0  0  0  0  0  0  0  0  0  0
  -27.5500   41.4642   22.7953 C   0  0  0  0  0  0  0  0  0  0  0  0
  -26.9768   42.4324   21.9742 C   0  0  0  0  0  0  0  0  0  0  0  0
  -26.0043   43.4778   23.9031 C   0  0  0  0  0  0  0  0  0  0  0  0
  -27.3561   41.5149   24.1745 C   0  0  0  0  0  0  0  0  0  0  0  0
  -28.6797   41.9514   26.7413 O   0  0  0  0  0  0  0  0  0  0  0  0
  -27.4738   39.2147   29.4575 C   0  0  0  0  0  0  0  0  0  0  0  0
  -27.3862   38.0229   28.5374 C   0  0  0  0  0  0  0  0  0  0  0  0
  -27.5574   41.4028   31.2183 N   0  0  0  0  0  0  0  0  0  0  0  0
  -27.7745   40.1529   31.6423 C   0  0  0  0  0  0  0  0  0  0  0  0
  -27.7374   39.0486   30.8137 C   0  0  0  0  0  0  0  0  0  0  0  0
  1  3  1  0
  1  4  1  0
  2  3  2  0
  2 17  1  0
  3 15  1  0
  5  4  1  6
  4 14  2  0
  5  6  1  0
  6 12  2  0
  6 13  1  0
  7 11  2  0
  7 12  1  0
  8  9  3  0
  8 10  1  0
 10 11  1  0
 10 13  2  0
 16 15  1  6
 15 19  2  0
 17 18  2  0
 18 19  1  0
M  END
$$$$
