
     RDKit          3D

 19 20  0  0  0  0  0  0  0  0999 V2000
  -57.8650   94.3302  135.2390 N   0  0  0  0  0  0  0  0  0  0  0  0
  -56.1534   94.6205  136.9677 C   0  0  0  0  0  0  0  0  0  0  0  0
  -57.4904   94.4861  136.5873 C   0  0  0  0  0  0  0  0  0  0  0  0
  -57.6953   93.2087  134.5171 C   0  0  0  0  0  0  0  0  0  0  0  0
  -58.5880   92.0551  134.9279 C   0  0  0  0  0  0  0  0  0  0  0  0
  -59.0808   92.2832  136.3376 C   0  0  0  0  0  0  0  0  0  0  0  0
  -58.6518   92.4327  138.7084 C   0  0  0  0  0  0  0  0  0  0  0  0
  -62.3091   92.8046  138.1317 C   0  0  0  0  0  0  0  0  0  0  0  0
  -63.4168   92.9789  138.3505 N   0  0  0  0  0  0  0  0  0  0  0  0
  -60.9043   92.5970  137.8909 C   0  0  0  0  0  0  0  0  0  0  0  0
  -60.0062   92.5795  138.9554 C   0  0  0  0  0  0  0  0  0  0  0  0
  -58.1946   92.2868  137.4087 C   0  0  0  0  0  0  0  0  0  0  0  0
  -60.4418   92.4466  136.5848 C   0  0  0  0  0  0  0  0  0  0  0  0
  -56.9158   93.1188  133.5734 O   0  0  0  0  0  0  0  0  0  0  0  0
  -58.4818   94.5030  137.5801 C   0  0  0  0  0  0  0  0  0  0  0  0
  -59.9418   94.3169  137.2511 C   0  0  0  0  0  0  0  0  0  0  0  0
  -55.7629   94.7637  138.2398 N   0  0  0  0  0  0  0  0  0  0  0  0
  -56.7172   94.7885  139.1767 C   0  0  0  0  0  0  0  0  0  0  0  0
  -58.0637   94.6583  138.8982 C   0  0  0  0  0  0  0  0  0  0  0  0
  1  3  1  0
  1  4  1  0
  2  3  2  0
  2 17  1  0
  3 15  1  0
  5  4  1  6
  4 14  2  0
  5  6  1  0
  6 12  2  0
  6 13  1  0
  7 11  2  0
  7 12  1  0
  8  9  3  0
  8 10  1  0
 10 11  1  0
 10 13  2  0
 16 15  1  6
 15 19  2  0
 17 18  2  0
 18 19  1  0
M  END
$$$$
