
     RDKit          3D

 19 20  0  0  0  0  0  0  0  0999 V2000
   62.5690   46.2638  -16.4396 N   0  0  0  0  0  0  0  0  0  0  0  0
   63.5578   44.5407  -17.8732 C   0  0  0  0  0  0  0  0  0  0  0  0
   63.5136   45.2448  -16.6680 C   0  0  0  0  0  0  0  0  0  0  0  0
   61.5732   46.5937  -17.2807 C   0  0  0  0  0  0  0  0  0  0  0  0
   60.5750   47.5841  -16.7158 C   0  0  0  0  0  0  0  0  0  0  0  0
   60.5379   48.8117  -17.5954 C   0  0  0  0  0  0  0  0  0  0  0  0
   59.3728   50.7504  -18.4386 C   0  0  0  0  0  0  0  0  0  0  0  0
   62.6479   50.4740  -20.1832 C   0  0  0  0  0  0  0  0  0  0  0  0
   63.5325   50.7342  -20.8579 N   0  0  0  0  0  0  0  0  0  0  0  0
   61.5341   50.1811  -19.3185 C   0  0  0  0  0  0  0  0  0  0  0  0
   60.4150   51.0106  -19.3120 C   0  0  0  0  0  0  0  0  0  0  0  0
   59.4361   49.6594  -17.5871 C   0  0  0  0  0  0  0  0  0  0  0  0
   61.5934   49.0824  -18.4631 C   0  0  0  0  0  0  0  0  0  0  0  0
   61.4845   46.1698  -18.4290 O   0  0  0  0  0  0  0  0  0  0  0  0
   64.4342   44.9204  -15.6601 C   0  0  0  0  0  0  0  0  0  0  0  0
   64.4177   45.6044  -14.3161 C   0  0  0  0  0  0  0  0  0  0  0  0
   64.4377   43.5629  -18.1203 N   0  0  0  0  0  0  0  0  0  0  0  0
   65.3170   43.2691  -17.1561 C   0  0  0  0  0  0  0  0  0  0  0  0
   65.3475   43.9061  -15.9310 C   0  0  0  0  0  0  0  0  0  0  0  0
  1  3  1  0
  1  4  1  0
  2  3  2  0
  2 17  1  0
  3 15  1  0
  5  4  1  6
  4 14  2  0
  5  6  1  0
  6 12  2  0
  6 13  1  0
  7 11  2  0
  7 12  1  0
  8  9  3  0
  8 10  1  0
 10 11  1  0
 10 13  2  0
 16 15  1  6
 15 19  2  0
 17 18  2  0
 18 19  1  0
M  END
$$$$
