
     RDKit          3D

 19 20  0  0  0  0  0  0  0  0999 V2000
  -27.3821   43.9717 -138.8114 N   0  0  0  0  0  0  0  0  0  0  0  0
  -26.2615   46.1250 -139.1421 C   0  0  0  0  0  0  0  0  0  0  0  0
  -26.4717   44.7927 -139.5040 C   0  0  0  0  0  0  0  0  0  0  0  0
  -27.4093   43.8061 -137.4774 C   0  0  0  0  0  0  0  0  0  0  0  0
  -27.1120   42.3947 -137.0126 C   0  0  0  0  0  0  0  0  0  0  0  0
  -25.9042   42.4122 -136.1055 C   0  0  0  0  0  0  0  0  0  0  0  0
  -23.6477   41.7139 -135.6076 C   0  0  0  0  0  0  0  0  0  0  0  0
  -24.9339   43.7203 -132.7499 C   0  0  0  0  0  0  0  0  0  0  0  0
  -25.0026   44.2558 -131.7430 N   0  0  0  0  0  0  0  0  0  0  0  0
  -24.8730   43.0201 -134.0070 C   0  0  0  0  0  0  0  0  0  0  0  0
  -23.7148   42.3387 -134.3739 C   0  0  0  0  0  0  0  0  0  0  0  0
  -24.7348   41.7524 -136.4657 C   0  0  0  0  0  0  0  0  0  0  0  0
  -25.9661   43.0542 -134.8708 C   0  0  0  0  0  0  0  0  0  0  0  0
  -27.6161   44.7184 -136.6831 O   0  0  0  0  0  0  0  0  0  0  0  0
  -25.7572   44.2654 -140.5904 C   0  0  0  0  0  0  0  0  0  0  0  0
  -25.9650   42.8504 -141.0689 C   0  0  0  0  0  0  0  0  0  0  0  0
  -25.4090   46.9340 -139.7825 N   0  0  0  0  0  0  0  0  0  0  0  0
  -24.7261   46.4177 -140.8102 C   0  0  0  0  0  0  0  0  0  0  0  0
  -24.8699   45.1146 -141.2446 C   0  0  0  0  0  0  0  0  0  0  0  0
  1  3  1  0
  1  4  1  0
  2  3  2  0
  2 17  1  0
  3 15  1  0
  5  4  1  6
  4 14  2  0
  5  6  1  0
  6 12  2  0
  6 13  1  0
  7 11  2  0
  7 12  1  0
  8  9  3  0
  8 10  1  0
 10 11  1  0
 10 13  2  0
 16 15  1  6
 15 19  2  0
 17 18  2  0
 18 19  1  0
M  END
$$$$
