
     RDKit          3D

 19 20  0  0  0  0  0  0  0  0999 V2000
  -61.4080   62.3355   -8.6671 N   0  0  0  0  0  0  0  0  0  0  0  0
  -62.2889   64.5984   -8.9914 C   0  0  0  0  0  0  0  0  0  0  0  0
  -62.4839   63.2208   -8.8701 C   0  0  0  0  0  0  0  0  0  0  0  0
  -60.1101   62.6866   -8.6710 C   0  0  0  0  0  0  0  0  0  0  0  0
  -59.8574   64.1635   -8.4441 C   0  0  0  0  0  0  0  0  0  0  0  0
  -60.1338   64.9190   -9.7227 C   0  0  0  0  0  0  0  0  0  0  0  0
  -60.0241   66.9513  -11.0207 C   0  0  0  0  0  0  0  0  0  0  0  0
  -61.8737   64.3835  -12.9781 C   0  0  0  0  0  0  0  0  0  0  0  0
  -62.4166   63.8791  -13.8478 N   0  0  0  0  0  0  0  0  0  0  0  0
  -61.1623   65.0303  -11.9059 C   0  0  0  0  0  0  0  0  0  0  0  0
  -60.7538   66.3557  -12.0353 C   0  0  0  0  0  0  0  0  0  0  0  0
  -59.7167   66.2364   -9.8744 C   0  0  0  0  0  0  0  0  0  0  0  0
  -60.8544   64.3148  -10.7502 C   0  0  0  0  0  0  0  0  0  0  0  0
  -59.1895   61.8862   -8.8053 O   0  0  0  0  0  0  0  0  0  0  0  0
  -63.7892   62.7122   -8.9489 C   0  0  0  0  0  0  0  0  0  0  0  0
  -64.0827   61.2425   -8.7807 C   0  0  0  0  0  0  0  0  0  0  0  0
  -63.2893   65.4678   -9.1784 N   0  0  0  0  0  0  0  0  0  0  0  0
  -64.5282   64.9705   -9.2620 C   0  0  0  0  0  0  0  0  0  0  0  0
  -64.8199   63.6253   -9.1492 C   0  0  0  0  0  0  0  0  0  0  0  0
  1  3  1  0
  1  4  1  0
  2  3  2  0
  2 17  1  0
  3 15  1  0
  5  4  1  6
  4 14  2  0
  5  6  1  0
  6 12  2  0
  6 13  1  0
  7 11  2  0
  7 12  1  0
  8  9  3  0
  8 10  1  0
 10 11  1  0
 10 13  2  0
 16 15  1  6
 15 19  2  0
 17 18  2  0
 18 19  1  0
M  END
$$$$
