
     RDKit          3D

 19 20  0  0  0  0  0  0  0  0999 V2000
  -61.0547  159.2620   39.2102 N   0  0  0  0  0  0  0  0  0  0  0  0
  -60.6516  157.5030   37.5531 C   0  0  0  0  0  0  0  0  0  0  0  0
  -60.4517  158.0500   38.8225 C   0  0  0  0  0  0  0  0  0  0  0  0
  -60.6564  160.4827   38.8115 C   0  0  0  0  0  0  0  0  0  0  0  0
  -60.9902  161.6003   39.7789 C   0  0  0  0  0  0  0  0  0  0  0  0
  -62.2290  162.3206   39.3006 C   0  0  0  0  0  0  0  0  0  0  0  0
  -63.3428  163.7257   37.6842 C   0  0  0  0  0  0  0  0  0  0  0  0
  -65.6942  163.0315   40.4834 C   0  0  0  0  0  0  0  0  0  0  0  0
  -66.6534  162.9950   41.1030 N   0  0  0  0  0  0  0  0  0  0  0  0
  -64.5002  163.0524   39.6784 C   0  0  0  0  0  0  0  0  0  0  0  0
  -64.4778  163.7560   38.4764 C   0  0  0  0  0  0  0  0  0  0  0  0
  -62.2283  163.0121   38.0946 C   0  0  0  0  0  0  0  0  0  0  0  0
  -63.3764  162.3383   40.0900 C   0  0  0  0  0  0  0  0  0  0  0  0
  -60.0370  160.6902   37.7726 O   0  0  0  0  0  0  0  0  0  0  0  0
  -59.6311  157.3667   39.7327 C   0  0  0  0  0  0  0  0  0  0  0  0
  -59.4060  157.8710   41.1360 C   0  0  0  0  0  0  0  0  0  0  0  0
  -60.0991  156.3507   37.1551 N   0  0  0  0  0  0  0  0  0  0  0  0
  -59.3108  155.7132   38.0275 C   0  0  0  0  0  0  0  0  0  0  0  0
  -59.0580  156.1729   39.3052 C   0  0  0  0  0  0  0  0  0  0  0  0
  1  3  1  0
  1  4  1  0
  2  3  2  0
  2 17  1  0
  3 15  1  0
  5  4  1  6
  4 14  2  0
  5  6  1  0
  6 12  2  0
  6 13  1  0
  7 11  2  0
  7 12  1  0
  8  9  3  0
  8 10  1  0
 10 11  1  0
 10 13  2  0
 16 15  1  6
 15 19  2  0
 17 18  2  0
 18 19  1  0
M  END
$$$$
