
     RDKit          3D

 19 20  0  0  0  0  0  0  0  0999 V2000
 -101.0738   44.4150  155.5761 N   0  0  0  0  0  0  0  0  0  0  0  0
 -103.2569   45.0391  156.4963 C   0  0  0  0  0  0  0  0  0  0  0  0
 -101.8679   44.9486  156.6093 C   0  0  0  0  0  0  0  0  0  0  0  0
  -99.9594   44.9868  155.0875 C   0  0  0  0  0  0  0  0  0  0  0  0
  -99.3578   46.0548  155.9785 C   0  0  0  0  0  0  0  0  0  0  0  0
  -97.8705   46.1351  155.7264 C   0  0  0  0  0  0  0  0  0  0  0  0
  -95.8118   45.1106  154.9922 C   0  0  0  0  0  0  0  0  0  0  0  0
  -95.0568   48.5218  156.2727 C   0  0  0  0  0  0  0  0  0  0  0  0
  -94.5079   49.4789  156.5695 N   0  0  0  0  0  0  0  0  0  0  0  0
  -95.7771   47.3253  155.9213 C   0  0  0  0  0  0  0  0  0  0  0  0
  -95.1021   46.2357  155.3761 C   0  0  0  0  0  0  0  0  0  0  0  0
  -97.1854   45.0630  155.1661 C   0  0  0  0  0  0  0  0  0  0  0  0
  -97.1586   47.2732  156.0980 C   0  0  0  0  0  0  0  0  0  0  0  0
  -99.4344   44.6572  154.0282 O   0  0  0  0  0  0  0  0  0  0  0  0
 -101.2528   45.4076  157.7838 C   0  0  0  0  0  0  0  0  0  0  0  0
  -99.7551   45.3856  157.9594 C   0  0  0  0  0  0  0  0  0  0  0  0
 -104.0400   45.5463  157.4559 N   0  0  0  0  0  0  0  0  0  0  0  0
 -103.4437   45.9715  158.5751 C   0  0  0  0  0  0  0  0  0  0  0  0
 -102.0779   45.9275  158.7763 C   0  0  0  0  0  0  0  0  0  0  0  0
  1  3  1  0
  1  4  1  0
  2  3  2  0
  2 17  1  0
  3 15  1  0
  5  4  1  6
  4 14  2  0
  5  6  1  0
  6 12  2  0
  6 13  1  0
  7 11  2  0
  7 12  1  0
  8  9  3  0
  8 10  1  0
 10 11  1  0
 10 13  2  0
 16 15  1  6
 15 19  2  0
 17 18  2  0
 18 19  1  0
M  END
$$$$
