
     RDKit          3D

 19 20  0  0  0  0  0  0  0  0999 V2000
 -103.1316   -7.9811  -10.4778 N   0  0  0  0  0  0  0  0  0  0  0  0
 -105.0548   -9.0358  -11.5690 C   0  0  0  0  0  0  0  0  0  0  0  0
 -103.6904   -8.9997  -11.2732 C   0  0  0  0  0  0  0  0  0  0  0  0
 -102.5701   -8.1672   -9.2703 C   0  0  0  0  0  0  0  0  0  0  0  0
 -103.5554   -8.2211   -8.1201 C   0  0  0  0  0  0  0  0  0  0  0  0
 -104.9460   -7.9437   -8.6411 C   0  0  0  0  0  0  0  0  0  0  0  0
 -107.0909   -6.8599   -8.4135 C   0  0  0  0  0  0  0  0  0  0  0  0
 -107.1734   -9.0499  -11.4209 C   0  0  0  0  0  0  0  0  0  0  0  0
 -107.5651   -9.5698  -12.3598 N   0  0  0  0  0  0  0  0  0  0  0  0
 -106.7150   -8.3935  -10.2236 C   0  0  0  0  0  0  0  0  0  0  0  0
 -107.5591   -7.5269   -9.5329 C   0  0  0  0  0  0  0  0  0  0  0  0
 -105.7938   -7.0675   -7.9733 C   0  0  0  0  0  0  0  0  0  0  0  0
 -105.4118   -8.6028   -9.7764 C   0  0  0  0  0  0  0  0  0  0  0  0
 -101.3651   -8.3229   -9.0974 O   0  0  0  0  0  0  0  0  0  0  0  0
 -102.8605  -10.0106  -11.7812 C   0  0  0  0  0  0  0  0  0  0  0  0
 -101.3866  -10.0642  -11.4663 C   0  0  0  0  0  0  0  0  0  0  0  0
 -105.6190   -9.9924  -12.3160 N   0  0  0  0  0  0  0  0  0  0  0  0
 -104.8166  -10.9452  -12.8032 C   0  0  0  0  0  0  0  0  0  0  0  0
 -103.4577  -10.9962  -12.5611 C   0  0  0  0  0  0  0  0  0  0  0  0
  1  3  1  0
  1  4  1  0
  2  3  2  0
  2 17  1  0
  3 15  1  0
  5  4  1  6
  4 14  2  0
  5  6  1  0
  6 12  2  0
  6 13  1  0
  7 11  2  0
  7 12  1  0
  8  9  3  0
  8 10  1  0
 10 11  1  0
 10 13  2  0
 16 15  1  6
 15 19  2  0
 17 18  2  0
 18 19  1  0
M  END
$$$$
