
     RDKit          3D

 19 20  0  0  0  0  0  0  0  0999 V2000
   44.3320   80.2548   71.0605 N   0  0  0  0  0  0  0  0  0  0  0  0
   44.1141   82.2547   69.6621 C   0  0  0  0  0  0  0  0  0  0  0  0
   44.2791   81.6541   70.9121 C   0  0  0  0  0  0  0  0  0  0  0  0
   43.2622   79.4405   71.0718 C   0  0  0  0  0  0  0  0  0  0  0  0
   43.3001   78.3672   72.1410 C   0  0  0  0  0  0  0  0  0  0  0  0
   41.9135   77.7962   72.3239 C   0  0  0  0  0  0  0  0  0  0  0  0
   39.5157   78.0255   72.1657 C   0  0  0  0  0  0  0  0  0  0  0  0
   40.2997   74.7436   73.7345 C   0  0  0  0  0  0  0  0  0  0  0  0
   40.1892   73.6968   74.1787 N   0  0  0  0  0  0  0  0  0  0  0  0
   40.4630   76.0492   73.1487 C   0  0  0  0  0  0  0  0  0  0  0  0
   39.3466   76.7947   72.7769 C   0  0  0  0  0  0  0  0  0  0  0  0
   40.7902   78.5202   71.9411 C   0  0  0  0  0  0  0  0  0  0  0  0
   41.7437   76.5509   72.9245 C   0  0  0  0  0  0  0  0  0  0  0  0
   42.3052   79.5644   70.3136 O   0  0  0  0  0  0  0  0  0  0  0  0
   44.3996   82.4722   72.0456 C   0  0  0  0  0  0  0  0  0  0  0  0
   44.6267   81.8980   73.4216 C   0  0  0  0  0  0  0  0  0  0  0  0
   44.0661   83.5805   69.4853 N   0  0  0  0  0  0  0  0  0  0  0  0
   44.1719   84.3501   70.5741 C   0  0  0  0  0  0  0  0  0  0  0  0
   44.3424   83.8486   71.8496 C   0  0  0  0  0  0  0  0  0  0  0  0
  1  3  1  0
  1  4  1  0
  2  3  2  0
  2 17  1  0
  3 15  1  0
  5  4  1  6
  4 14  2  0
  5  6  1  0
  6 12  2  0
  6 13  1  0
  7 11  2  0
  7 12  1  0
  8  9  3  0
  8 10  1  0
 10 11  1  0
 10 13  2  0
 16 15  1  6
 15 19  2  0
 17 18  2  0
 18 19  1  0
M  END
$$$$
