
     RDKit          3D

 19 20  0  0  0  0  0  0  0  0999 V2000
   -1.6887   57.7154   12.5293 N   0  0  0  0  0  0  0  0  0  0  0  0
   -2.8771   59.1643   10.9512 C   0  0  0  0  0  0  0  0  0  0  0  0
   -2.6342   58.7216   12.2532 C   0  0  0  0  0  0  0  0  0  0  0  0
   -0.7634   57.7740   13.5031 C   0  0  0  0  0  0  0  0  0  0  0  0
    0.2744   56.6710   13.4519 C   0  0  0  0  0  0  0  0  0  0  0  0
    0.1295   55.7927   14.6723 C   0  0  0  0  0  0  0  0  0  0  0  0
    0.8444   53.8988   15.9873 C   0  0  0  0  0  0  0  0  0  0  0  0
   -2.1654   55.3934   17.5855 C   0  0  0  0  0  0  0  0  0  0  0  0
   -2.9976   55.6079   18.3383 N   0  0  0  0  0  0  0  0  0  0  0  0
   -1.0951   55.1496   16.6531 C   0  0  0  0  0  0  0  0  0  0  0  0
   -0.2127   54.0919   16.8603 C   0  0  0  0  0  0  0  0  0  0  0  0
    1.0129   54.7444   14.9029 C   0  0  0  0  0  0  0  0  0  0  0  0
   -0.9249   55.9965   15.5594 C   0  0  0  0  0  0  0  0  0  0  0  0
   -0.7219   58.6623   14.3490 O   0  0  0  0  0  0  0  0  0  0  0  0
   -3.3512   59.3020   13.3105 C   0  0  0  0  0  0  0  0  0  0  0  0
   -3.1102   58.9092   14.7465 C   0  0  0  0  0  0  0  0  0  0  0  0
   -3.7635   60.1223   10.6548 N   0  0  0  0  0  0  0  0  0  0  0  0
   -4.4483   60.6613   11.6695 C   0  0  0  0  0  0  0  0  0  0  0  0
   -4.2738   60.2928   12.9892 C   0  0  0  0  0  0  0  0  0  0  0  0
  1  3  1  0
  1  4  1  0
  2  3  2  0
  2 17  1  0
  3 15  1  0
  5  4  1  6
  4 14  2  0
  5  6  1  0
  6 12  2  0
  6 13  1  0
  7 11  2  0
  7 12  1  0
  8  9  3  0
  8 10  1  0
 10 11  1  0
 10 13  2  0
 16 15  1  6
 15 19  2  0
 17 18  2  0
 18 19  1  0
M  END
$$$$
