
     RDKit          3D

 19 20  0  0  0  0  0  0  0  0999 V2000
   53.1995  -58.1232   45.2856 N   0  0  0  0  0  0  0  0  0  0  0  0
   55.2185  -58.7360   44.0406 C   0  0  0  0  0  0  0  0  0  0  0  0
   53.8575  -58.8959   44.3096 C   0  0  0  0  0  0  0  0  0  0  0  0
   53.0325  -56.7903   45.2291 C   0  0  0  0  0  0  0  0  0  0  0  0
   52.1733  -56.2164   46.3376 C   0  0  0  0  0  0  0  0  0  0  0  0
   50.8655  -56.9704   46.3961 C   0  0  0  0  0  0  0  0  0  0  0  0
   49.2260  -58.4050   45.3563 C   0  0  0  0  0  0  0  0  0  0  0  0
   47.9628  -57.3785   48.7026 C   0  0  0  0  0  0  0  0  0  0  0  0
   47.2965  -57.3217   49.6290 N   0  0  0  0  0  0  0  0  0  0  0  0
   48.7985  -57.4877   47.5347 C   0  0  0  0  0  0  0  0  0  0  0  0
   48.3913  -58.2635   46.4519 C   0  0  0  0  0  0  0  0  0  0  0  0
   50.4536  -57.7632   45.3311 C   0  0  0  0  0  0  0  0  0  0  0  0
   50.0326  -56.8407   47.5050 C   0  0  0  0  0  0  0  0  0  0  0  0
   53.5570  -56.0746   44.3812 O   0  0  0  0  0  0  0  0  0  0  0  0
   53.1310  -59.8501   43.5814 C   0  0  0  0  0  0  0  0  0  0  0  0
   51.6494  -60.0471   43.7831 C   0  0  0  0  0  0  0  0  0  0  0  0
   55.8728  -59.4490   43.1160 N   0  0  0  0  0  0  0  0  0  0  0  0
   55.1723  -60.3626   42.4350 C   0  0  0  0  0  0  0  0  0  0  0  0
   53.8235  -60.5890   42.6270 C   0  0  0  0  0  0  0  0  0  0  0  0
  1  3  1  0
  1  4  1  0
  2  3  2  0
  2 17  1  0
  3 15  1  0
  5  4  1  6
  4 14  2  0
  5  6  1  0
  6 12  2  0
  6 13  1  0
  7 11  2  0
  7 12  1  0
  8  9  3  0
  8 10  1  0
 10 11  1  0
 10 13  2  0
 16 15  1  6
 15 19  2  0
 17 18  2  0
 18 19  1  0
M  END
$$$$
