
     RDKit          3D

 19 20  0  0  0  0  0  0  0  0999 V2000
  -10.6079  -58.9121 -107.3311 N   0  0  0  0  0  0  0  0  0  0  0  0
  -12.3064  -60.5718 -106.7291 C   0  0  0  0  0  0  0  0  0  0  0  0
  -10.9904  -60.2393 -107.0577 C   0  0  0  0  0  0  0  0  0  0  0  0
  -10.0312  -58.0790 -106.4473 C   0  0  0  0  0  0  0  0  0  0  0  0
   -8.7282  -57.4655 -106.9189 C   0  0  0  0  0  0  0  0  0  0  0  0
   -8.9823  -56.0504 -107.3828 C   0  0  0  0  0  0  0  0  0  0  0  0
  -10.3467  -54.4450 -108.5609 C   0  0  0  0  0  0  0  0  0  0  0  0
   -7.2642  -52.7398 -107.3621 C   0  0  0  0  0  0  0  0  0  0  0  0
   -6.5150  -51.9048 -107.1460 N   0  0  0  0  0  0  0  0  0  0  0  0
   -8.2363  -53.7666 -107.6360 C   0  0  0  0  0  0  0  0  0  0  0  0
   -9.3937  -53.4633 -108.3492 C   0  0  0  0  0  0  0  0  0  0  0  0
  -10.1410  -55.7278 -108.0797 C   0  0  0  0  0  0  0  0  0  0  0  0
   -8.0307  -55.0588 -107.1562 C   0  0  0  0  0  0  0  0  0  0  0  0
  -10.5234  -57.7946 -105.3596 O   0  0  0  0  0  0  0  0  0  0  0  0
  -10.0276  -61.2585 -107.1106 C   0  0  0  0  0  0  0  0  0  0  0  0
   -8.5784  -60.9702 -107.4125 C   0  0  0  0  0  0  0  0  0  0  0  0
  -12.7019  -61.8213 -106.4575 N   0  0  0  0  0  0  0  0  0  0  0  0
  -11.7777  -62.7861 -106.5209 C   0  0  0  0  0  0  0  0  0  0  0  0
  -10.4521  -62.5541 -106.8320 C   0  0  0  0  0  0  0  0  0  0  0  0
  1  3  1  0
  1  4  1  0
  2  3  2  0
  2 17  1  0
  3 15  1  0
  5  4  1  6
  4 14  2  0
  5  6  1  0
  6 12  2  0
  6 13  1  0
  7 11  2  0
  7 12  1  0
  8  9  3  0
  8 10  1  0
 10 11  1  0
 10 13  2  0
 16 15  1  6
 15 19  2  0
 17 18  2  0
 18 19  1  0
M  END
$$$$
