
     RDKit          3D

 19 20  0  0  0  0  0  0  0  0999 V2000
  -44.0952 -143.6406   73.8029 N   0  0  0  0  0  0  0  0  0  0  0  0
  -46.4490 -143.7493   74.4739 C   0  0  0  0  0  0  0  0  0  0  0  0
  -45.0915 -143.6917   74.7967 C   0  0  0  0  0  0  0  0  0  0  0  0
  -42.9956 -144.4138   73.7741 C   0  0  0  0  0  0  0  0  0  0  0  0
  -43.0595 -145.6319   74.6732 C   0  0  0  0  0  0  0  0  0  0  0  0
  -41.7370 -145.7969   75.3845 C   0  0  0  0  0  0  0  0  0  0  0  0
  -39.4598 -146.5970   75.4144 C   0  0  0  0  0  0  0  0  0  0  0  0
  -40.2615 -145.1542   78.7494 C   0  0  0  0  0  0  0  0  0  0  0  0
  -40.1779 -144.8062   79.8344 N   0  0  0  0  0  0  0  0  0  0  0  0
  -40.4019 -145.6053   77.3887 C   0  0  0  0  0  0  0  0  0  0  0  0
  -39.3315 -146.2157   76.7392 C   0  0  0  0  0  0  0  0  0  0  0  0
  -40.6539 -146.3876   74.7438 C   0  0  0  0  0  0  0  0  0  0  0  0
  -41.6029 -145.3989   76.7126 C   0  0  0  0  0  0  0  0  0  0  0  0
  -42.0259 -144.1904   73.0557 O   0  0  0  0  0  0  0  0  0  0  0  0
  -44.7169 -143.6800   76.1488 C   0  0  0  0  0  0  0  0  0  0  0  0
  -43.2742 -143.5721   76.5746 C   0  0  0  0  0  0  0  0  0  0  0  0
  -47.4209 -143.7924   75.3931 N   0  0  0  0  0  0  0  0  0  0  0  0
  -47.0517 -143.7908   76.6787 C   0  0  0  0  0  0  0  0  0  0  0  0
  -45.7362 -143.7308   77.0948 C   0  0  0  0  0  0  0  0  0  0  0  0
  1  3  1  0
  1  4  1  0
  2  3  2  0
  2 17  1  0
  3 15  1  0
  5  4  1  6
  4 14  2  0
  5  6  1  0
  6 12  2  0
  6 13  1  0
  7 11  2  0
  7 12  1  0
  8  9  3  0
  8 10  1  0
 10 11  1  0
 10 13  2  0
 16 15  1  6
 15 19  2  0
 17 18  2  0
 18 19  1  0
M  END
$$$$
