
     RDKit          3D

 19 20  0  0  0  0  0  0  0  0999 V2000
  -75.6457  -43.9531   85.3965 N   0  0  0  0  0  0  0  0  0  0  0  0
  -74.5511  -44.7697   87.4305 C   0  0  0  0  0  0  0  0  0  0  0  0
  -75.1736  -43.7499   86.7074 C   0  0  0  0  0  0  0  0  0  0  0  0
  -75.2788  -44.9679   84.5943 C   0  0  0  0  0  0  0  0  0  0  0  0
  -74.5117  -46.0742   85.2903 C   0  0  0  0  0  0  0  0  0  0  0  0
  -74.5804  -47.3307   84.4547 C   0  0  0  0  0  0  0  0  0  0  0  0
  -73.7857  -49.5517   83.9419 C   0  0  0  0  0  0  0  0  0  0  0  0
  -76.3566  -48.5940   81.4278 C   0  0  0  0  0  0  0  0  0  0  0  0
  -77.0660  -48.6743   80.5359 N   0  0  0  0  0  0  0  0  0  0  0  0
  -75.4483  -48.5269   82.5435 C   0  0  0  0  0  0  0  0  0  0  0  0
  -74.6166  -49.6055   82.8356 C   0  0  0  0  0  0  0  0  0  0  0  0
  -73.7700  -48.4225   84.7444 C   0  0  0  0  0  0  0  0  0  0  0  0
  -75.4277  -47.3910   83.3508 C   0  0  0  0  0  0  0  0  0  0  0  0
  -75.5664  -45.0311   83.4029 O   0  0  0  0  0  0  0  0  0  0  0  0
  -75.3341  -42.4932   87.3103 C   0  0  0  0  0  0  0  0  0  0  0  0
  -76.0375  -41.3578   86.6099 C   0  0  0  0  0  0  0  0  0  0  0  0
  -74.0970  -44.6121   88.6797 N   0  0  0  0  0  0  0  0  0  0  0  0
  -74.2464  -43.4071   89.2406 C   0  0  0  0  0  0  0  0  0  0  0  0
  -74.8529  -42.3402   88.6069 C   0  0  0  0  0  0  0  0  0  0  0  0
  1  3  1  0
  1  4  1  0
  2  3  2  0
  2 17  1  0
  3 15  1  0
  5  4  1  6
  4 14  2  0
  5  6  1  0
  6 12  2  0
  6 13  1  0
  7 11  2  0
  7 12  1  0
  8  9  3  0
  8 10  1  0
 10 11  1  0
 10 13  2  0
 16 15  1  6
 15 19  2  0
 17 18  2  0
 18 19  1  0
M  END
$$$$
