
     RDKit          3D

 19 20  0  0  0  0  0  0  0  0999 V2000
   48.5218   18.8927   31.8383 N   0  0  0  0  0  0  0  0  0  0  0  0
   47.5171   18.8551   29.6042 C   0  0  0  0  0  0  0  0  0  0  0  0
   48.4493   18.3796   30.5291 C   0  0  0  0  0  0  0  0  0  0  0  0
   49.6606   19.0997   32.5226 C   0  0  0  0  0  0  0  0  0  0  0  0
   50.8981   19.2336   31.6584 C   0  0  0  0  0  0  0  0  0  0  0  0
   51.4621   20.6271   31.8073 C   0  0  0  0  0  0  0  0  0  0  0  0
   51.4568   22.7847   32.8899 C   0  0  0  0  0  0  0  0  0  0  0  0
   53.9528   22.8402   30.1305 C   0  0  0  0  0  0  0  0  0  0  0  0
   54.7873   23.2130   29.4450 N   0  0  0  0  0  0  0  0  0  0  0  0
   52.9159   22.3901   31.0231 C   0  0  0  0  0  0  0  0  0  0  0  0
   52.4153   23.2445   32.0028 C   0  0  0  0  0  0  0  0  0  0  0  0
   50.9860   21.4855   32.7918 C   0  0  0  0  0  0  0  0  0  0  0  0
   52.4378   21.0847   30.9248 C   0  0  0  0  0  0  0  0  0  0  0  0
   49.7090   19.2140   33.7436 O   0  0  0  0  0  0  0  0  0  0  0  0
   49.3309   17.3603   30.1388 C   0  0  0  0  0  0  0  0  0  0  0  0
   50.3328   16.7642   31.0956 C   0  0  0  0  0  0  0  0  0  0  0  0
   47.4172   18.3854   28.3549 N   0  0  0  0  0  0  0  0  0  0  0  0
   48.2694   17.4208   27.9909 C   0  0  0  0  0  0  0  0  0  0  0  0
   49.2210   16.8843   28.8359 C   0  0  0  0  0  0  0  0  0  0  0  0
  1  3  1  0
  1  4  1  0
  2  3  2  0
  2 17  1  0
  3 15  1  0
  5  4  1  6
  4 14  2  0
  5  6  1  0
  6 12  2  0
  6 13  1  0
  7 11  2  0
  7 12  1  0
  8  9  3  0
  8 10  1  0
 10 11  1  0
 10 13  2  0
 16 15  1  6
 15 19  2  0
 17 18  2  0
 18 19  1  0
M  END
$$$$
