
     RDKit          3D

 19 20  0  0  0  0  0  0  0  0999 V2000
  -57.8537   16.4994   30.1755 N   0  0  0  0  0  0  0  0  0  0  0  0
  -60.0302   15.4152   30.4748 C   0  0  0  0  0  0  0  0  0  0  0  0
  -58.8223   15.5538   29.7877 C   0  0  0  0  0  0  0  0  0  0  0  0
  -58.0311   17.8322   30.1656 C   0  0  0  0  0  0  0  0  0  0  0  0
  -56.7475   18.6376   30.1741 C   0  0  0  0  0  0  0  0  0  0  0  0
  -57.0380   20.0439   29.7050 C   0  0  0  0  0  0  0  0  0  0  0  0
  -57.4981   22.3626   30.1942 C   0  0  0  0  0  0  0  0  0  0  0  0
  -57.7035   21.8560   26.5134 C   0  0  0  0  0  0  0  0  0  0  0  0
  -57.8302   22.0384   25.3927 N   0  0  0  0  0  0  0  0  0  0  0  0
  -57.5518   21.5895   27.9207 C   0  0  0  0  0  0  0  0  0  0  0  0
  -57.6987   22.6182   28.8483 C   0  0  0  0  0  0  0  0  0  0  0  0
  -57.1695   21.0849   30.6170 C   0  0  0  0  0  0  0  0  0  0  0  0
  -57.2243   20.3045   28.3494 C   0  0  0  0  0  0  0  0  0  0  0  0
  -59.1324   18.3712   30.1135 O   0  0  0  0  0  0  0  0  0  0  0  0
  -58.5710   14.7226   28.6856 C   0  0  0  0  0  0  0  0  0  0  0  0
  -57.2710   14.7817   27.9234 C   0  0  0  0  0  0  0  0  0  0  0  0
  -60.9688   14.5230   30.1369 N   0  0  0  0  0  0  0  0  0  0  0  0
  -60.7227   13.7429   29.0786 C   0  0  0  0  0  0  0  0  0  0  0  0
  -59.5568   13.8030   28.3408 C   0  0  0  0  0  0  0  0  0  0  0  0
  1  3  1  0
  1  4  1  0
  2  3  2  0
  2 17  1  0
  3 15  1  0
  5  4  1  6
  4 14  2  0
  5  6  1  0
  6 12  2  0
  6 13  1  0
  7 11  2  0
  7 12  1  0
  8  9  3  0
  8 10  1  0
 10 11  1  0
 10 13  2  0
 16 15  1  6
 15 19  2  0
 17 18  2  0
 18 19  1  0
M  END
$$$$
