
     RDKit          3D

 19 20  0  0  0  0  0  0  0  0999 V2000
  -52.1788  -72.3019   83.6819 N   0  0  0  0  0  0  0  0  0  0  0  0
  -50.0567  -71.3470   82.9157 C   0  0  0  0  0  0  0  0  0  0  0  0
  -50.8554  -71.8875   83.9259 C   0  0  0  0  0  0  0  0  0  0  0  0
  -52.6825  -72.5979   82.4710 C   0  0  0  0  0  0  0  0  0  0  0  0
  -51.6398  -72.8737   81.4063 C   0  0  0  0  0  0  0  0  0  0  0  0
  -51.7762  -74.3017   80.9326 C   0  0  0  0  0  0  0  0  0  0  0  0
  -51.0300  -76.1277   79.5412 C   0  0  0  0  0  0  0  0  0  0  0  0
  -54.0897  -77.1945   81.3708 C   0  0  0  0  0  0  0  0  0  0  0  0
  -54.9369  -77.8405   81.7831 N   0  0  0  0  0  0  0  0  0  0  0  0
  -53.0049  -76.3813   80.8849 C   0  0  0  0  0  0  0  0  0  0  0  0
  -52.1000  -76.8995   79.9613 C   0  0  0  0  0  0  0  0  0  0  0  0
  -50.8707  -74.8393   80.0251 C   0  0  0  0  0  0  0  0  0  0  0  0
  -52.8437  -75.0837   81.3673 C   0  0  0  0  0  0  0  0  0  0  0  0
  -53.8842  -72.6825   82.2364 O   0  0  0  0  0  0  0  0  0  0  0  0
  -50.3176  -72.0229   85.2147 C   0  0  0  0  0  0  0  0  0  0  0  0
  -51.1029  -72.6402   86.3445 C   0  0  0  0  0  0  0  0  0  0  0  0
  -48.7939  -70.9495   83.1119 N   0  0  0  0  0  0  0  0  0  0  0  0
  -48.2951  -71.0740   84.3468 C   0  0  0  0  0  0  0  0  0  0  0  0
  -49.0057  -71.6008   85.4074 C   0  0  0  0  0  0  0  0  0  0  0  0
  1  3  1  0
  1  4  1  0
  2  3  2  0
  2 17  1  0
  3 15  1  0
  5  4  1  6
  4 14  2  0
  5  6  1  0
  6 12  2  0
  6 13  1  0
  7 11  2  0
  7 12  1  0
  8  9  3  0
  8 10  1  0
 10 11  1  0
 10 13  2  0
 16 15  1  6
 15 19  2  0
 17 18  2  0
 18 19  1  0
M  END
$$$$
