
     RDKit          3D

 19 20  0  0  0  0  0  0  0  0999 V2000
  -36.6940   -8.8564    1.0963 N   0  0  0  0  0  0  0  0  0  0  0  0
  -37.7619   -6.8992    2.1115 C   0  0  0  0  0  0  0  0  0  0  0  0
  -36.7075   -7.8121    2.0406 C   0  0  0  0  0  0  0  0  0  0  0  0
  -37.2401   -8.7926   -0.1307 C   0  0  0  0  0  0  0  0  0  0  0  0
  -37.3057   -7.3972   -0.7181 C   0  0  0  0  0  0  0  0  0  0  0  0
  -38.3706   -7.3562   -1.7888 C   0  0  0  0  0  0  0  0  0  0  0  0
  -39.2020   -6.4944   -3.8848 C   0  0  0  0  0  0  0  0  0  0  0  0
  -41.7790   -8.7377   -2.4106 C   0  0  0  0  0  0  0  0  0  0  0  0
  -42.7285   -9.3530   -2.2521 N   0  0  0  0  0  0  0  0  0  0  0  0
  -40.5687   -7.9751   -2.5775 C   0  0  0  0  0  0  0  0  0  0  0  0
  -40.3910   -7.1813   -3.7082 C   0  0  0  0  0  0  0  0  0  0  0  0
  -38.2004   -6.5832   -2.9317 C   0  0  0  0  0  0  0  0  0  0  0  0
  -39.5606   -8.0598   -1.6188 C   0  0  0  0  0  0  0  0  0  0  0  0
  -37.6231   -9.7763   -0.7567 O   0  0  0  0  0  0  0  0  0  0  0  0
  -35.6338   -7.6771    2.9338 C   0  0  0  0  0  0  0  0  0  0  0  0
  -34.4387   -8.5957    2.8871 C   0  0  0  0  0  0  0  0  0  0  0  0
  -37.8031   -5.8920    2.9920 N   0  0  0  0  0  0  0  0  0  0  0  0
  -36.7790   -5.7791    3.8450 C   0  0  0  0  0  0  0  0  0  0  0  0
  -35.6909   -6.6297    3.8481 C   0  0  0  0  0  0  0  0  0  0  0  0
  1  3  1  0
  1  4  1  0
  2  3  2  0
  2 17  1  0
  3 15  1  0
  5  4  1  6
  4 14  2  0
  5  6  1  0
  6 12  2  0
  6 13  1  0
  7 11  2  0
  7 12  1  0
  8  9  3  0
  8 10  1  0
 10 11  1  0
 10 13  2  0
 16 15  1  6
 15 19  2  0
 17 18  2  0
 18 19  1  0
M  END
$$$$
