
     RDKit          3D

 19 20  0  0  0  0  0  0  0  0999 V2000
   53.1637   10.1735  -40.7139 N   0  0  0  0  0  0  0  0  0  0  0  0
   52.2365    8.1510  -41.7395 C   0  0  0  0  0  0  0  0  0  0  0  0
   53.3156    8.9957  -41.4704 C   0  0  0  0  0  0  0  0  0  0  0  0
   54.1644   10.8297  -40.1008 C   0  0  0  0  0  0  0  0  0  0  0  0
   55.1542   11.4875  -41.0410 C   0  0  0  0  0  0  0  0  0  0  0  0
   56.0963   12.3587  -40.2437 C   0  0  0  0  0  0  0  0  0  0  0  0
   58.0029   12.5917  -38.7817 C   0  0  0  0  0  0  0  0  0  0  0  0
   56.4734   15.9454  -39.2919 C   0  0  0  0  0  0  0  0  0  0  0  0
   56.2664   17.0673  -39.2319 N   0  0  0  0  0  0  0  0  0  0  0  0
   56.6982   14.5243  -39.3582 C   0  0  0  0  0  0  0  0  0  0  0  0
   57.7638   13.9508  -38.6684 C   0  0  0  0  0  0  0  0  0  0  0  0
   57.1749   11.8038  -39.5646 C   0  0  0  0  0  0  0  0  0  0  0  0
   55.8650   13.7285  -40.1423 C   0  0  0  0  0  0  0  0  0  0  0  0
   54.2636   10.9330  -38.8819 O   0  0  0  0  0  0  0  0  0  0  0  0
   54.5831    8.6536  -41.9657 C   0  0  0  0  0  0  0  0  0  0  0  0
   55.8036    9.4911  -41.6769 C   0  0  0  0  0  0  0  0  0  0  0  0
   52.3474    7.0217  -42.4492 N   0  0  0  0  0  0  0  0  0  0  0  0
   53.5583    6.7109  -42.9248 C   0  0  0  0  0  0  0  0  0  0  0  0
   54.6845    7.4802  -42.7067 C   0  0  0  0  0  0  0  0  0  0  0  0
  1  3  1  0
  1  4  1  0
  2  3  2  0
  2 17  1  0
  3 15  1  0
  5  4  1  6
  4 14  2  0
  5  6  1  0
  6 12  2  0
  6 13  1  0
  7 11  2  0
  7 12  1  0
  8  9  3  0
  8 10  1  0
 10 11  1  0
 10 13  2  0
 16 15  1  6
 15 19  2  0
 17 18  2  0
 18 19  1  0
M  END
$$$$
