
     RDKit          3D

 19 20  0  0  0  0  0  0  0  0999 V2000
  -92.1752  -56.5574   75.7923 N   0  0  0  0  0  0  0  0  0  0  0  0
  -91.9629  -58.7671   74.7559 C   0  0  0  0  0  0  0  0  0  0  0  0
  -92.6768  -57.5865   74.9726 C   0  0  0  0  0  0  0  0  0  0  0  0
  -91.2454  -56.7193   76.7498 C   0  0  0  0  0  0  0  0  0  0  0  0
  -91.1406  -58.1303   77.2927 C   0  0  0  0  0  0  0  0  0  0  0  0
  -89.7826  -58.3214   77.9262 C   0  0  0  0  0  0  0  0  0  0  0  0
  -87.6364  -59.4245   77.9882 C   0  0  0  0  0  0  0  0  0  0  0  0
  -87.8903  -57.1426   80.9166 C   0  0  0  0  0  0  0  0  0  0  0  0
  -87.5947  -56.5568   81.8519 N   0  0  0  0  0  0  0  0  0  0  0  0
  -88.2301  -57.8713   79.7216 C   0  0  0  0  0  0  0  0  0  0  0  0
  -87.3213  -58.7692   79.1665 C   0  0  0  0  0  0  0  0  0  0  0  0
  -88.8577  -59.2002   77.3740 C   0  0  0  0  0  0  0  0  0  0  0  0
  -89.4593  -57.6503   79.1032 C   0  0  0  0  0  0  0  0  0  0  0  0
  -90.5049  -55.8207   77.1376 O   0  0  0  0  0  0  0  0  0  0  0  0
  -93.9241  -57.4257   74.3504 C   0  0  0  0  0  0  0  0  0  0  0  0
  -94.7312  -56.1605   74.4995 C   0  0  0  0  0  0  0  0  0  0  0  0
  -92.4074  -59.7617   73.9783 N   0  0  0  0  0  0  0  0  0  0  0  0
  -93.6021  -59.6015   73.3985 C   0  0  0  0  0  0  0  0  0  0  0  0
  -94.3779  -58.4689   73.5491 C   0  0  0  0  0  0  0  0  0  0  0  0
  1  3  1  0
  1  4  1  0
  2  3  2  0
  2 17  1  0
  3 15  1  0
  5  4  1  6
  4 14  2  0
  5  6  1  0
  6 12  2  0
  6 13  1  0
  7 11  2  0
  7 12  1  0
  8  9  3  0
  8 10  1  0
 10 11  1  0
 10 13  2  0
 16 15  1  6
 15 19  2  0
 17 18  2  0
 18 19  1  0
M  END
$$$$
