
     RDKit          3D

 19 20  0  0  0  0  0  0  0  0999 V2000
  -13.5696   83.7839   23.0563 N   0  0  0  0  0  0  0  0  0  0  0  0
  -11.1929   83.8493   22.4654 C   0  0  0  0  0  0  0  0  0  0  0  0
  -12.5269   83.6139   22.1255 C   0  0  0  0  0  0  0  0  0  0  0  0
  -13.4376   84.3589   24.2645 C   0  0  0  0  0  0  0  0  0  0  0  0
  -12.1116   85.0579   24.4869 C   0  0  0  0  0  0  0  0  0  0  0  0
  -11.7160   84.9269   25.9389 C   0  0  0  0  0  0  0  0  0  0  0  0
  -10.7533   83.6402   27.7402 C   0  0  0  0  0  0  0  0  0  0  0  0
  -12.0491   86.8431   29.1217 C   0  0  0  0  0  0  0  0  0  0  0  0
  -12.2993   87.6636   29.8764 N   0  0  0  0  0  0  0  0  0  0  0  0
  -11.7368   85.7832   28.1979 C   0  0  0  0  0  0  0  0  0  0  0  0
  -11.0969   84.6297   28.6455 C   0  0  0  0  0  0  0  0  0  0  0  0
  -11.0606   83.7900   26.3976 C   0  0  0  0  0  0  0  0  0  0  0  0
  -12.0477   85.9295   26.8472 C   0  0  0  0  0  0  0  0  0  0  0  0
  -14.3215   84.3630   25.1159 O   0  0  0  0  0  0  0  0  0  0  0  0
  -12.8300   83.2020   20.8189 C   0  0  0  0  0  0  0  0  0  0  0  0
  -14.2500   82.9737   20.3651 C   0  0  0  0  0  0  0  0  0  0  0  0
  -10.1791   83.7036   21.6039 N   0  0  0  0  0  0  0  0  0  0  0  0
  -10.4790   83.3008   20.3642 C   0  0  0  0  0  0  0  0  0  0  0  0
  -11.7670   83.0485   19.9343 C   0  0  0  0  0  0  0  0  0  0  0  0
  1  3  1  0
  1  4  1  0
  2  3  2  0
  2 17  1  0
  3 15  1  0
  5  4  1  6
  4 14  2  0
  5  6  1  0
  6 12  2  0
  6 13  1  0
  7 11  2  0
  7 12  1  0
  8  9  3  0
  8 10  1  0
 10 11  1  0
 10 13  2  0
 16 15  1  6
 15 19  2  0
 17 18  2  0
 18 19  1  0
M  END
$$$$
