
     RDKit          3D

 19 20  0  0  0  0  0  0  0  0999 V2000
 -102.6834   43.6115  118.8569 N   0  0  0  0  0  0  0  0  0  0  0  0
 -104.5354   42.1549  119.5279 C   0  0  0  0  0  0  0  0  0  0  0  0
 -103.1709   42.3793  119.3328 C   0  0  0  0  0  0  0  0  0  0  0  0
 -102.6198   44.7449  119.5775 C   0  0  0  0  0  0  0  0  0  0  0  0
 -101.3944   44.8603  120.4614 C   0  0  0  0  0  0  0  0  0  0  0  0
 -100.4296   43.7478  120.1244 C   0  0  0  0  0  0  0  0  0  0  0  0
  -99.0838   41.8635  120.8066 C   0  0  0  0  0  0  0  0  0  0  0  0
  -98.4631   42.5294  117.1985 C   0  0  0  0  0  0  0  0  0  0  0  0
  -98.0580   42.4606  116.1325 N   0  0  0  0  0  0  0  0  0  0  0  0
  -98.9692   42.6537  118.5412 C   0  0  0  0  0  0  0  0  0  0  0  0
  -98.5508   41.7688  119.5322 C   0  0  0  0  0  0  0  0  0  0  0  0
 -100.0165   42.8456  121.0980 C   0  0  0  0  0  0  0  0  0  0  0  0
  -99.9052   43.6426  118.8383 C   0  0  0  0  0  0  0  0  0  0  0  0
 -103.4546   45.6419  119.5090 O   0  0  0  0  0  0  0  0  0  0  0  0
 -102.2666   41.3471  119.6251 C   0  0  0  0  0  0  0  0  0  0  0  0
 -100.7763   41.5303  119.4840 C   0  0  0  0  0  0  0  0  0  0  0  0
 -105.0315   40.9987  119.9845 N   0  0  0  0  0  0  0  0  0  0  0  0
 -104.1608   40.0186  120.2502 C   0  0  0  0  0  0  0  0  0  0  0  0
 -102.7947   40.1480  120.0937 C   0  0  0  0  0  0  0  0  0  0  0  0
  1  3  1  0
  1  4  1  0
  2  3  2  0
  2 17  1  0
  3 15  1  0
  5  4  1  6
  4 14  2  0
  5  6  1  0
  6 12  2  0
  6 13  1  0
  7 11  2  0
  7 12  1  0
  8  9  3  0
  8 10  1  0
 10 11  1  0
 10 13  2  0
 16 15  1  6
 15 19  2  0
 17 18  2  0
 18 19  1  0
M  END
$$$$
