
     RDKit          3D

 45 49  0  0  0  0  0  0  0  0999 V2000
   32.3886   62.5408  -69.0584 C   0  0  0  0  0  0  0  0  0  0  0  0
   32.4370   65.1306  -69.6359 C   0  0  0  0  0  0  0  0  0  0  0  0
   33.1567   64.9410  -68.2922 C   0  0  1  0  0  0  0  0  0  0  0  0
   34.7776   63.3913  -69.1851 C   0  0  0  0  0  0  0  0  0  0  0  0
   30.9610   65.6130  -69.4829 C   0  0  0  0  0  0  0  0  0  0  0  0
   30.7104   66.8524  -68.5840 C   0  0  0  0  0  0  0  0  0  0  0  0
   32.3007   64.1195  -67.3728 C   0  0  0  0  0  0  0  0  0  0  0  0
   30.9002   62.5666  -66.7415 C   0  0  0  0  0  0  0  0  0  0  0  0
   26.9402   64.3675  -60.5554 C   0  0  0  0  0  0  0  0  0  0  0  0
   29.9518   63.9911  -64.7767 C   0  0  0  0  0  0  0  0  0  0  0  0
   27.3821   61.5675  -69.7984 Cl  0  0  0  0  0  0  0  0  0  0  0  0
   30.5830   61.3377  -72.1674 C   0  0  0  0  0  0  0  0  0  0  0  0
   29.2768   61.2952  -71.7006 C   0  0  0  0  0  0  0  0  0  0  0  0
   29.0165   61.6464  -70.3913 C   0  0  0  0  0  0  0  0  0  0  0  0
   30.0266   62.0381  -69.5349 C   0  0  0  0  0  0  0  0  0  0  0  0
   31.3532   62.0778  -69.9938 C   0  0  0  0  0  0  0  0  0  0  0  0
   31.6222   61.7208  -71.3256 C   0  0  0  0  0  0  0  0  0  0  0  0
   32.9610   61.7026  -71.8257 N   0  0  0  0  0  0  0  0  0  0  0  0
   34.1166   62.1419  -71.3101 C   0  0  0  0  0  0  0  0  0  0  0  0
   35.0819   61.9481  -72.1662 N   0  0  0  0  0  0  0  0  0  0  0  0
   34.4991   61.3675  -73.2477 N   0  0  0  0  0  0  0  0  0  0  0  0
   33.2248   61.2137  -73.0608 N   0  0  0  0  0  0  0  0  0  0  0  0
   33.6926   62.3886  -69.2613 C   0  0  0  0  0  0  0  0  0  0  0  0
   35.8699   63.2171  -69.7366 O   0  0  0  0  0  0  0  0  0  0  0  0
   34.5357   64.4773  -68.4203 N   0  0  0  0  0  0  0  0  0  0  0  0
   31.8365   62.8911  -67.6757 N   0  0  0  0  0  0  0  0  0  0  0  0
   30.8396   63.6340  -65.8913 C   0  0  0  0  0  0  0  0  0  0  0  0
   31.7461   64.5887  -66.2814 N   0  0  0  0  0  0  0  0  0  0  0  0
   29.7405   63.0661  -63.7492 C   0  0  0  0  0  0  0  0  0  0  0  0
   28.9995   63.4068  -62.6288 C   0  0  0  0  0  0  0  0  0  0  0  0
   28.4749   64.6930  -62.4989 C   0  0  0  0  0  0  0  0  0  0  0  0
   28.6551   65.6090  -63.5356 C   0  0  0  0  0  0  0  0  0  0  0  0
   29.3727   65.2770  -64.6813 C   0  0  0  0  0  0  0  0  0  0  0  0
   27.6864   65.1351  -61.3986 N   0  0  0  0  0  0  0  0  0  0  0  0
   27.3242   63.3905  -59.9483 O   0  0  0  0  0  0  0  0  0  0  0  0
   25.6803   64.8445  -60.4988 O   0  0  0  0  0  0  0  0  0  0  0  0
   24.8137   64.2471  -59.4948 C   0  0  0  0  0  0  0  0  0  0  0  0
   29.2693   67.0212  -68.0798 C   0  0  0  0  0  0  0  0  0  0  0  0
   28.7977   66.0070  -67.0222 C   0  0  1  0  0  0  0  0  0  0  0  0
   29.4855   66.1847  -65.7491 N   0  0  0  0  0  0  0  0  0  0  0  0
   27.2794   66.0156  -66.9015 C   0  0  0  0  0  0  0  0  0  0  0  0
   26.7050   66.0352  -65.8524 O   0  0  0  0  0  0  0  0  0  0  0  0
   26.6766   65.9933  -68.0927 O   0  0  0  0  0  0  0  0  0  0  0  0
   26.2831   67.2502  -70.1180 C   0  0  0  0  0  0  0  0  0  0  0  0
   27.3298   66.7038  -69.1971 C   0  0  0  0  0  0  0  0  0  0  0  0
  1 16  1  0
  1 23  2  0
  2  3  1  6
  5  2  1  6
  3  7  1  0
  3 25  1  6
  4 23  1  0
  4 24  2  0
  4 25  1  0
  6  5  1  6
  6 38  1  0
  7 26  1  0
  7 28  2  0
  8 26  1  0
  8 27  2  0
  9 34  1  0
  9 35  2  0
  9 36  1  0
 10 27  1  0
 10 29  1  0
 10 33  2  0
 11 14  1  0
 12 13  2  0
 12 17  1  0
 13 14  1  0
 14 15  2  0
 15 16  1  0
 16 17  2  0
 17 18  1  0
 18 19  1  0
 18 22  1  0
 19 20  2  0
 20 21  1  0
 21 22  2  0
 27 28  1  0
 29 30  2  0
 30 31  1  0
 31 32  2  0
 31 34  1  0
 32 33  1  0
 33 40  1  0
 37 36  1  6
 38 39  1  1
 39 40  1  0
 39 41  1  1
 41 42  2  0
 41 43  1  0
 45 43  1  6
 44 45  1  6
M  END
$$$$
