
     RDKit          3D

 45 49  0  0  0  0  0  0  0  0999 V2000
   67.5082  -15.5706   -1.3088 C   0  0  0  0  0  0  0  0  0  0  0  0
   65.8132  -12.9944    2.4578 C   0  0  0  0  0  0  0  0  0  0  0  0
   66.2772  -12.5112    1.0756 C   0  0  1  0  0  0  0  0  0  0  0  0
   68.1329  -13.3700   -0.2069 C   0  0  0  0  0  0  0  0  0  0  0  0
   64.2783  -12.8306    2.6858 C   0  0  0  0  0  0  0  0  0  0  0  0
   63.3351  -13.4037    1.5953 C   0  0  0  0  0  0  0  0  0  0  0  0
   65.7274  -11.1400    0.8097 C   0  0  0  0  0  0  0  0  0  0  0  0
   65.0843   -9.0918    1.2125 C   0  0  0  0  0  0  0  0  0  0  0  0
   59.7459   -6.6265   -3.5567 C   0  0  0  0  0  0  0  0  0  0  0  0
   63.2499   -9.1300   -0.6376 C   0  0  0  0  0  0  0  0  0  0  0  0
   66.8929  -18.5181   -5.4913 Cl  0  0  0  0  0  0  0  0  0  0  0  0
   68.1609  -14.7740   -4.9576 C   0  0  0  0  0  0  0  0  0  0  0  0
   67.7844  -15.9716   -5.5490 C   0  0  0  0  0  0  0  0  0  0  0  0
   67.3398  -17.0073   -4.7519 C   0  0  0  0  0  0  0  0  0  0  0  0
   67.2622  -16.8790   -3.3792 C   0  0  0  0  0  0  0  0  0  0  0  0
   67.6475  -15.6745   -2.7687 C   0  0  0  0  0  0  0  0  0  0  0  0
   68.1008  -14.6183   -3.5764 C   0  0  0  0  0  0  0  0  0  0  0  0
   68.5460  -13.3894   -2.9982 N   0  0  0  0  0  0  0  0  0  0  0  0
   68.8987  -12.2180   -3.5438 C   0  0  0  0  0  0  0  0  0  0  0  0
   69.2864  -11.3959   -2.6078 N   0  0  0  0  0  0  0  0  0  0  0  0
   69.1671  -12.0865   -1.4436 N   0  0  0  0  0  0  0  0  0  0  0  0
   68.7249  -13.2865   -1.6597 N   0  0  0  0  0  0  0  0  0  0  0  0
   67.2236  -14.4412   -0.6698 C   0  0  0  0  0  0  0  0  0  0  0  0
   69.2429  -13.1870   -0.7189 O   0  0  0  0  0  0  0  0  0  0  0  0
   67.7143  -12.6470    0.8536 N   0  0  0  0  0  0  0  0  0  0  0  0
   65.9303  -10.0796    1.6162 N   0  0  0  0  0  0  0  0  0  0  0  0
   64.3934   -9.6060    0.1521 C   0  0  0  0  0  0  0  0  0  0  0  0
   64.8290  -10.8816   -0.1095 N   0  0  0  0  0  0  0  0  0  0  0  0
   63.2898   -7.8463   -1.1911 C   0  0  0  0  0  0  0  0  0  0  0  0
   62.2808   -7.4041   -2.0319 C   0  0  0  0  0  0  0  0  0  0  0  0
   61.2203   -8.2491   -2.3601 C   0  0  0  0  0  0  0  0  0  0  0  0
   61.1589   -9.5186   -1.7850 C   0  0  0  0  0  0  0  0  0  0  0  0
   62.1482   -9.9707   -0.9162 C   0  0  0  0  0  0  0  0  0  0  0  0
   60.1279   -7.8843   -3.1977 N   0  0  0  0  0  0  0  0  0  0  0  0
   58.7717   -6.3357   -4.2177 O   0  0  0  0  0  0  0  0  0  0  0  0
   60.6297   -5.7274   -3.0788 O   0  0  0  0  0  0  0  0  0  0  0  0
   61.9452   -6.2434   -2.7335 C   0  0  0  0  0  0  0  0  0  0  0  0
   61.9063  -12.8398    1.5962 C   0  0  0  0  0  0  0  0  0  0  0  0
   61.7533  -11.3796    1.1337 C   0  0  1  0  0  0  0  0  0  0  0  0
   62.0376  -11.2235   -0.2876 N   0  0  0  0  0  0  0  0  0  0  0  0
   60.4003  -10.8176    1.5504 C   0  0  0  0  0  0  0  0  0  0  0  0
   59.4604  -10.7562    0.8130 O   0  0  0  0  0  0  0  0  0  0  0  0
   60.3935  -10.4026    2.8194 O   0  0  0  0  0  0  0  0  0  0  0  0
   60.5138   -8.0834    2.1538 C   0  0  0  0  0  0  0  0  0  0  0  0
   59.8719   -9.0590    3.0910 C   0  0  0  0  0  0  0  0  0  0  0  0
  1 16  1  0
  1 23  2  0
  2  3  1  6
  5  2  1  6
  3  7  1  0
  3 25  1  1
  4 23  1  0
  4 24  2  0
  4 25  1  0
  6  5  1  6
  6 38  1  0
  7 26  1  0
  7 28  2  0
  8 26  1  0
  8 27  2  0
  9 34  1  0
  9 35  2  0
  9 36  1  0
 10 27  1  0
 10 29  1  0
 10 33  2  0
 11 14  1  0
 12 13  2  0
 12 17  1  0
 13 14  1  0
 14 15  2  0
 15 16  1  0
 16 17  2  0
 17 18  1  0
 18 19  1  0
 18 22  1  0
 19 20  2  0
 20 21  1  0
 21 22  2  0
 27 28  1  0
 29 30  2  0
 30 31  1  0
 31 32  2  0
 31 34  1  0
 32 33  1  0
 33 40  1  0
 37 36  1  6
 38 39  1  1
 39 40  1  0
 39 41  1  6
 41 42  2  0
 41 43  1  0
 45 43  1  6
 44 45  1  6
M  END
$$$$
