
     RDKit          3D

 45 49  0  0  0  0  0  0  0  0999 V2000
 -424.1345  368.4087 -165.7805 C   0  0  0  0  0  0  0  0  0  0  0  0
 -428.9949  367.9638 -166.8195 C   0  0  0  0  0  0  0  0  0  0  0  0
 -428.0939  369.0050 -167.5005 C   0  0  1  0  0  0  0  0  0  0  0  0
 -426.0790  367.6994 -167.2511 C   0  0  0  0  0  0  0  0  0  0  0  0
 -430.4987  368.0970 -167.2136 C   0  0  0  0  0  0  0  0  0  0  0  0
 -430.8317  368.1561 -168.7279 C   0  0  0  0  0  0  0  0  0  0  0  0
 -428.6870  370.3733 -167.3316 C   0  0  0  0  0  0  0  0  0  0  0  0
 -429.7320  372.0345 -166.3724 C   0  0  0  0  0  0  0  0  0  0  0  0
 -433.6163  376.3676 -171.1688 C   0  0  0  0  0  0  0  0  0  0  0  0
 -430.6465  372.9741 -168.6241 C   0  0  0  0  0  0  0  0  0  0  0  0
 -422.8335  371.0504 -161.5511 Cl  0  0  0  0  0  0  0  0  0  0  0  0
 -424.8707  367.6712 -162.1352 C   0  0  0  0  0  0  0  0  0  0  0  0
 -424.2614  368.7607 -161.5290 C   0  0  0  0  0  0  0  0  0  0  0  0
 -423.6205  369.6982 -162.3135 C   0  0  0  0  0  0  0  0  0  0  0  0
 -423.5710  369.5762 -163.6882 C   0  0  0  0  0  0  0  0  0  0  0  0
 -424.1773  368.4741 -164.3125 C   0  0  0  0  0  0  0  0  0  0  0  0
 -424.8304  367.5176 -163.5174 C   0  0  0  0  0  0  0  0  0  0  0  0
 -425.4235  366.3563 -164.1025 N   0  0  0  0  0  0  0  0  0  0  0  0
 -426.6937  365.9369 -164.1719 C   0  0  0  0  0  0  0  0  0  0  0  0
 -426.7421  364.7781 -164.7696 N   0  0  0  0  0  0  0  0  0  0  0  0
 -425.4546  364.4742 -165.0802 N   0  0  0  0  0  0  0  0  0  0  0  0
 -424.6489  365.4107 -164.6855 N   0  0  0  0  0  0  0  0  0  0  0  0
 -424.8144  367.5254 -166.5033 C   0  0  0  0  0  0  0  0  0  0  0  0
 -426.5248  366.8200 -167.9967 O   0  0  0  0  0  0  0  0  0  0  0  0
 -426.6849  368.8997 -167.1305 N   0  0  0  0  0  0  0  0  0  0  0  0
 -428.9824  370.9222 -166.1367 N   0  0  0  0  0  0  0  0  0  0  0  0
 -429.8573  372.1159 -167.7302 C   0  0  0  0  0  0  0  0  0  0  0  0
 -429.1706  371.0844 -168.3213 N   0  0  0  0  0  0  0  0  0  0  0  0
 -430.5784  374.3628 -168.4727 C   0  0  0  0  0  0  0  0  0  0  0  0
 -431.2202  375.2064 -169.3652 C   0  0  0  0  0  0  0  0  0  0  0  0
 -431.9239  374.6781 -170.4479 C   0  0  0  0  0  0  0  0  0  0  0  0
 -432.0222  373.2934 -170.5849 C   0  0  0  0  0  0  0  0  0  0  0  0
 -431.4078  372.4291 -169.6830 C   0  0  0  0  0  0  0  0  0  0  0  0
 -432.6311  375.4571 -171.4076 N   0  0  0  0  0  0  0  0  0  0  0  0
 -434.2867  376.9331 -172.0063 O   0  0  0  0  0  0  0  0  0  0  0  0
 -433.7368  376.5718 -169.8414 O   0  0  0  0  0  0  0  0  0  0  0  0
 -432.5194  376.9430 -169.1373 C   0  0  0  0  0  0  0  0  0  0  0  0
 -432.2079  368.7417 -169.0783 C   0  0  0  0  0  0  0  0  0  0  0  0
 -432.3767  370.2558 -168.8579 C   0  0  1  0  0  0  0  0  0  0  0  0
 -431.5744  371.0372 -169.7911 N   0  0  0  0  0  0  0  0  0  0  0  0
 -433.8502  370.6415 -168.8488 C   0  0  0  0  0  0  0  0  0  0  0  0
 -434.7153  369.9366 -169.2794 O   0  0  0  0  0  0  0  0  0  0  0  0
 -434.0544  371.8479 -168.3143 O   0  0  0  0  0  0  0  0  0  0  0  0
 -433.1902  373.6891 -167.0108 C   0  0  0  0  0  0  0  0  0  0  0  0
 -433.2846  372.1985 -167.1162 C   0  0  0  0  0  0  0  0  0  0  0  0
  1 16  1  0
  1 23  2  0
  2  3  1  6
  5  2  1  6
  3  7  1  0
  3 25  1  1
  4 23  1  0
  4 24  2  0
  4 25  1  0
  6  5  1  6
  6 38  1  0
  7 26  1  0
  7 28  2  0
  8 26  1  0
  8 27  2  0
  9 34  1  0
  9 35  2  0
  9 36  1  0
 10 27  1  0
 10 29  1  0
 10 33  2  0
 11 14  1  0
 12 13  2  0
 12 17  1  0
 13 14  1  0
 14 15  2  0
 15 16  1  0
 16 17  2  0
 17 18  1  0
 18 19  1  0
 18 22  1  0
 19 20  2  0
 20 21  1  0
 21 22  2  0
 27 28  1  0
 29 30  2  0
 30 31  1  0
 31 32  2  0
 31 34  1  0
 32 33  1  0
 33 40  1  0
 37 36  1  6
 38 39  1  1
 39 40  1  0
 39 41  1  6
 41 42  2  0
 41 43  1  0
 45 43  1  6
 44 45  1  6
M  END
$$$$
