
     RDKit          3D

 45 49  0  0  0  0  0  0  0  0999 V2000
   -0.0319    2.1275  -19.9268 C   0  0  0  0  0  0  0  0  0  0  0  0
    3.9353    3.1610  -16.2998 C   0  0  0  0  0  0  0  0  0  0  0  0
    2.7510    2.1828  -16.2980 C   0  0  1  0  0  0  0  0  0  0  0  0
    1.1917    1.2456  -17.8843 C   0  0  0  0  0  0  0  0  0  0  0  0
    4.2208    3.7873  -14.8995 C   0  0  0  0  0  0  0  0  0  0  0  0
    4.3598    2.8108  -13.7018 C   0  0  0  0  0  0  0  0  0  0  0  0
    1.5715    2.8199  -15.6227 C   0  0  0  0  0  0  0  0  0  0  0  0
    0.1676    4.3832  -15.0255 C   0  0  0  0  0  0  0  0  0  0  0  0
   -1.6673    1.5615   -8.0622 C   0  0  0  0  0  0  0  0  0  0  0  0
   -0.3392    3.2759  -12.7219 C   0  0  0  0  0  0  0  0  0  0  0  0
   -1.2235    2.6284  -24.9157 Cl  0  0  0  0  0  0  0  0  0  0  0  0
    1.4717    4.3964  -22.5660 C   0  0  0  0  0  0  0  0  0  0  0  0
    0.7015    4.0487  -23.6667 C   0  0  0  0  0  0  0  0  0  0  0  0
   -0.2756    3.0834  -23.5288 C   0  0  0  0  0  0  0  0  0  0  0  0
   -0.5033    2.4549  -22.3204 C   0  0  0  0  0  0  0  0  0  0  0  0
    0.2747    2.7930  -21.2013 C   0  0  0  0  0  0  0  0  0  0  0  0
    1.2703    3.7747  -21.3377 C   0  0  0  0  0  0  0  0  0  0  0  0
    2.1170    4.1207  -20.2395 N   0  0  0  0  0  0  0  0  0  0  0  0
    2.1761    5.2096  -19.4616 C   0  0  0  0  0  0  0  0  0  0  0  0
    3.1585    5.0897  -18.6115 N   0  0  0  0  0  0  0  0  0  0  0  0
    3.7240    3.8826  -18.8754 N   0  0  0  0  0  0  0  0  0  0  0  0
    3.1116    3.2874  -19.8516 N   0  0  0  0  0  0  0  0  0  0  0  0
    0.7956    1.2919  -19.3089 C   0  0  0  0  0  0  0  0  0  0  0  0
    0.3868    0.9627  -16.9899 O   0  0  0  0  0  0  0  0  0  0  0  0
    2.4645    1.5988  -17.6056 N   0  0  0  0  0  0  0  0  0  0  0  0
    1.0306    3.9937  -16.0044 N   0  0  0  0  0  0  0  0  0  0  0  0
    0.2204    3.4044  -14.0740 C   0  0  0  0  0  0  0  0  0  0  0  0
    1.0823    2.4139  -14.4760 N   0  0  0  0  0  0  0  0  0  0  0  0
   -1.7063    3.4962  -12.5254 C   0  0  0  0  0  0  0  0  0  0  0  0
   -2.2898    3.2771  -11.2877 C   0  0  0  0  0  0  0  0  0  0  0  0
   -1.5213    2.8053  -10.2233 C   0  0  0  0  0  0  0  0  0  0  0  0
   -0.1513    2.6151  -10.4051 C   0  0  0  0  0  0  0  0  0  0  0  0
    0.4585    2.8562  -11.6331 C   0  0  0  0  0  0  0  0  0  0  0  0
   -2.0209    2.5669   -8.9112 N   0  0  0  0  0  0  0  0  0  0  0  0
   -1.7630    0.3726   -8.2815 O   0  0  0  0  0  0  0  0  0  0  0  0
   -1.1998    2.0812   -6.9092 O   0  0  0  0  0  0  0  0  0  0  0  0
   -0.2660    1.2508   -6.1644 C   0  0  0  0  0  0  0  0  0  0  0  0
    4.1733    3.4396  -12.3128 C   0  0  0  0  0  0  0  0  0  0  0  0
    2.7410    3.8721  -11.9510 C   0  0  1  0  0  0  0  0  0  0  0  0
    1.8507    2.7300  -11.7834 N   0  0  0  0  0  0  0  0  0  0  0  0
    2.7457    4.8217  -10.7601 C   0  0  0  0  0  0  0  0  0  0  0  0
    1.7637    5.0914  -10.1325 O   0  0  0  0  0  0  0  0  0  0  0  0
    3.9614    5.3136  -10.5094 O   0  0  0  0  0  0  0  0  0  0  0  0
    4.4515    5.3906  -12.8738 C   0  0  0  0  0  0  0  0  0  0  0  0
    4.6051    6.1022  -11.5653 C   0  0  0  0  0  0  0  0  0  0  0  0
  1 16  1  0
  1 23  2  0
  2  3  1  6
  5  2  1  6
  3  7  1  0
  3 25  1  6
  4 23  1  0
  4 24  2  0
  4 25  1  0
  6  5  1  6
  6 38  1  0
  7 26  1  0
  7 28  2  0
  8 26  1  0
  8 27  2  0
  9 34  1  0
  9 35  2  0
  9 36  1  0
 10 27  1  0
 10 29  1  0
 10 33  2  0
 11 14  1  0
 12 13  2  0
 12 17  1  0
 13 14  1  0
 14 15  2  0
 15 16  1  0
 16 17  2  0
 17 18  1  0
 18 19  1  0
 18 22  1  0
 19 20  2  0
 20 21  1  0
 21 22  2  0
 27 28  1  0
 29 30  2  0
 30 31  1  0
 31 32  2  0
 31 34  1  0
 32 33  1  0
 33 40  1  0
 37 36  1  6
 38 39  1  1
 39 40  1  0
 39 41  1  1
 41 42  2  0
 41 43  1  0
 45 43  1  6
 44 45  1  6
M  END
$$$$
