
     RDKit          3D

 45 49  0  0  0  0  0  0  0  0999 V2000
   72.3484   28.9157   52.1753 C   0  0  0  0  0  0  0  0  0  0  0  0
   69.0709   25.2503   49.2218 C   0  0  0  0  0  0  0  0  0  0  0  0
   69.2295   26.7756   49.3103 C   0  0  1  0  0  0  0  0  0  0  0  0
   71.2792   27.5773   50.3012 C   0  0  0  0  0  0  0  0  0  0  0  0
   68.2474   24.7863   47.9804 C   0  0  0  0  0  0  0  0  0  0  0  0
   68.6778   25.3415   46.5970 C   0  0  0  0  0  0  0  0  0  0  0  0
   67.8906   27.4327   49.1410 C   0  0  0  0  0  0  0  0  0  0  0  0
   65.7345   27.7347   49.3189 C   0  0  0  0  0  0  0  0  0  0  0  0
   63.4558   32.3828   43.6931 C   0  0  0  0  0  0  0  0  0  0  0  0
   65.5576   28.9915   47.0433 C   0  0  0  0  0  0  0  0  0  0  0  0
   72.4688   34.0192   52.8820 Cl  0  0  0  0  0  0  0  0  0  0  0  0
   72.3626   31.7202   49.6241 C   0  0  0  0  0  0  0  0  0  0  0  0
   72.4136   32.8246   50.4628 C   0  0  0  0  0  0  0  0  0  0  0  0
   72.4316   32.6334   51.8298 C   0  0  0  0  0  0  0  0  0  0  0  0
   72.3988   31.3680   52.3818 C   0  0  0  0  0  0  0  0  0  0  0  0
   72.3396   30.2430   51.5433 C   0  0  0  0  0  0  0  0  0  0  0  0
   72.3208   30.4335   50.1516 C   0  0  0  0  0  0  0  0  0  0  0  0
   72.2158   29.3223   49.2589 N   0  0  0  0  0  0  0  0  0  0  0  0
   71.4622   29.1145   48.1711 C   0  0  0  0  0  0  0  0  0  0  0  0
   71.6785   27.9136   47.7093 N   0  0  0  0  0  0  0  0  0  0  0  0
   72.5995   27.3627   48.5427 N   0  0  0  0  0  0  0  0  0  0  0  0
   72.9325   28.1948   49.4804 N   0  0  0  0  0  0  0  0  0  0  0  0
   72.0727   27.7865   51.5321 C   0  0  0  0  0  0  0  0  0  0  0  0
   71.7511   27.7765   49.1763 O   0  0  0  0  0  0  0  0  0  0  0  0
   69.9877   27.2246   50.4750 N   0  0  0  0  0  0  0  0  0  0  0  0
   66.8194   27.1659   49.9140 N   0  0  0  0  0  0  0  0  0  0  0  0
   66.2064   28.3390   48.1884 C   0  0  0  0  0  0  0  0  0  0  0  0
   67.5663   28.1680   48.1051 N   0  0  0  0  0  0  0  0  0  0  0  0
   64.6132   29.9966   47.2756 C   0  0  0  0  0  0  0  0  0  0  0  0
   64.0624   30.7100   46.2230 C   0  0  0  0  0  0  0  0  0  0  0  0
   64.4657   30.4512   44.9127 C   0  0  0  0  0  0  0  0  0  0  0  0
   65.3828   29.4277   44.6729 C   0  0  0  0  0  0  0  0  0  0  0  0
   65.9265   28.6812   45.7145 C   0  0  0  0  0  0  0  0  0  0  0  0
   63.9477   31.1140   43.7636 N   0  0  0  0  0  0  0  0  0  0  0  0
   62.3738   32.7543   44.0955 O   0  0  0  0  0  0  0  0  0  0  0  0
   64.3515   33.1862   43.0847 O   0  0  0  0  0  0  0  0  0  0  0  0
   65.6920   32.6450   42.9239 C   0  0  0  0  0  0  0  0  0  0  0  0
   67.6130   25.2594   45.4929 C   0  0  0  0  0  0  0  0  0  0  0  0
   66.4118   26.2111   45.6371 C   0  0  1  0  0  0  0  0  0  0  0  0
   66.7941   27.6059   45.4540 N   0  0  0  0  0  0  0  0  0  0  0  0
   65.2610   25.7715   44.7414 C   0  0  0  0  0  0  0  0  0  0  0  0
   64.2516   25.2860   45.1614 O   0  0  0  0  0  0  0  0  0  0  0  0
   65.5153   25.9860   43.4483 O   0  0  0  0  0  0  0  0  0  0  0  0
   67.6339   24.9311   43.9329 C   0  0  0  0  0  0  0  0  0  0  0  0
   66.6549   25.2790   42.8546 C   0  0  0  0  0  0  0  0  0  0  0  0
  1 16  1  0
  1 23  2  0
  2  3  1  6
  5  2  1  6
  3  7  1  0
  3 25  1  1
  4 23  1  0
  4 24  2  0
  4 25  1  0
  6  5  1  6
  6 38  1  0
  7 26  1  0
  7 28  2  0
  8 26  1  0
  8 27  2  0
  9 34  1  0
  9 35  2  0
  9 36  1  0
 10 27  1  0
 10 29  1  0
 10 33  2  0
 11 14  1  0
 12 13  2  0
 12 17  1  0
 13 14  1  0
 14 15  2  0
 15 16  1  0
 16 17  2  0
 17 18  1  0
 18 19  1  0
 18 22  1  0
 19 20  2  0
 20 21  1  0
 21 22  2  0
 27 28  1  0
 29 30  2  0
 30 31  1  0
 31 32  2  0
 31 34  1  0
 32 33  1  0
 33 40  1  0
 37 36  1  6
 38 39  1  1
 39 40  1  0
 39 41  1  6
 41 42  2  0
 41 43  1  0
 45 43  1  6
 44 45  1  6
M  END
$$$$
