
     RDKit          3D

 45 49  0  0  0  0  0  0  0  0999 V2000
419064.3750554558.9375-215698.5000 C   0  0  0  0  0  0  0  0  0  0  0  0
419070.0000554558.9375-215698.3906 C   0  0  0  0  0  0  0  0  0  0  0  0
419068.5000554559.0625-215698.2969 C   0  0  1  0  0  0  0  0  0  0  0  0
419066.5938554559.4375-215699.6562 C   0  0  0  0  0  0  0  0  0  0  0  0
419070.6875554558.2500-215697.2031 C   0  0  0  0  0  0  0  0  0  0  0  0
419070.1250554556.8125-215696.8438 C   0  0  0  0  0  0  0  0  0  0  0  0
419068.1250554559.5625-215696.8906 C   0  0  0  0  0  0  0  0  0  0  0  0
419068.2188554560.6250-215695.0312 C   0  0  0  0  0  0  0  0  0  0  0  0
419064.4688554555.8125-215690.2812 C   0  0  0  0  0  0  0  0  0  0  0  0
419067.1250554558.6875-215693.6250 C   0  0  0  0  0  0  0  0  0  0  0  0
419062.5312554556.9375-215702.8906 Cl  0  0  0  0  0  0  0  0  0  0  0  0
419063.2188554555.3125-215699.2188 C   0  0  0  0  0  0  0  0  0  0  0  0
419062.9688554555.3750-215700.5312 C   0  0  0  0  0  0  0  0  0  0  0  0
419063.0625554556.8125-215701.2188 C   0  0  0  0  0  0  0  0  0  0  0  0
419063.4375554557.7500-215700.4844 C   0  0  0  0  0  0  0  0  0  0  0  0
419063.8125554557.6250-215699.1406 C   0  0  0  0  0  0  0  0  0  0  0  0
419063.7188554556.5000-215698.5625 C   0  0  0  0  0  0  0  0  0  0  0  0
419064.1562554556.3750-215697.0938 N   0  0  0  0  0  0  0  0  0  0  0  0
419065.2812554556.4375-215696.4844 C   0  0  0  0  0  0  0  0  0  0  0  0
419065.0625554556.2500-215695.2344 N   0  0  0  0  0  0  0  0  0  0  0  0
419063.6562554555.8125-215695.0625 N   0  0  0  0  0  0  0  0  0  0  0  0
419063.1562554556.0625-215696.2031 N   0  0  0  0  0  0  0  0  0  0  0  0
419065.5938554559.5625-215698.5469 C   0  0  0  0  0  0  0  0  0  0  0  0
419066.2188554559.1250-215700.8438 O   0  0  0  0  0  0  0  0  0  0  0  0
419067.8438554559.7500-215699.3438 N   0  0  0  0  0  0  0  0  0  0  0  0
419068.5312554560.6250-215696.3906 N   0  0  0  0  0  0  0  0  0  0  0  0
419067.5625554559.4375-215694.8125 C   0  0  0  0  0  0  0  0  0  0  0  0
419067.5625554558.7500-215696.0000 N   0  0  0  0  0  0  0  0  0  0  0  0
419066.3125554559.4375-215692.7031 C   0  0  0  0  0  0  0  0  0  0  0  0
419065.7812554558.8750-215691.6094 C   0  0  0  0  0  0  0  0  0  0  0  0
419066.0000554557.5000-215691.4219 C   0  0  0  0  0  0  0  0  0  0  0  0
419066.8750554556.7500-215692.3281 C   0  0  0  0  0  0  0  0  0  0  0  0
419067.4375554557.3750-215693.3750 C   0  0  0  0  0  0  0  0  0  0  0  0
419065.4688554556.7500-215690.3594 N   0  0  0  0  0  0  0  0  0  0  0  0
419064.1250554554.8750-215691.0625 O   0  0  0  0  0  0  0  0  0  0  0  0
419063.7188554556.0625-215689.2812 O   0  0  0  0  0  0  0  0  0  0  0  0
419063.8750554557.1875-215688.7031 C   0  0  0  0  0  0  0  0  0  0  0  0
419070.5312554556.3750-215695.4062 C   0  0  0  0  0  0  0  0  0  0  0  0
419069.7812554556.9375-215694.2812 C   0  0  1  0  0  0  0  0  0  0  0  0
419068.3438554556.8125-215694.2656 N   0  0  0  0  0  0  0  0  0  0  0  0
419070.4688554556.8125-215692.9219 C   0  0  0  0  0  0  0  0  0  0  0  0
419071.3125554557.5625-215692.4844 O   0  0  0  0  0  0  0  0  0  0  0  0
419070.0312554555.6250-215692.3906 O   0  0  0  0  0  0  0  0  0  0  0  0
419069.7188554554.2500-215690.3906 C   0  0  0  0  0  0  0  0  0  0  0  0
419070.6562554555.3125-215691.1250 C   0  0  0  0  0  0  0  0  0  0  0  0
  1 16  1  0
  1 23  2  0
  2  3  1  6
  5  2  1  6
  3  7  1  0
  3 25  1  6
  4 23  1  0
  4 24  2  0
  4 25  1  0
  6  5  1  6
  6 38  1  0
  7 26  1  0
  7 28  2  0
  8 26  1  0
  8 27  2  0
  9 34  1  0
  9 35  2  0
  9 36  1  0
 10 27  1  0
 10 29  1  0
 10 33  2  0
 11 14  1  0
 12 13  2  0
 12 17  1  0
 13 14  1  0
 14 15  2  0
 15 16  1  0
 16 17  2  0
 17 18  1  0
 18 19  1  0
 18 22  1  0
 19 20  2  0
 20 21  1  0
 21 22  2  0
 27 28  1  0
 29 30  2  0
 30 31  1  0
 31 32  2  0
 31 34  1  0
 32 33  1  0
 33 40  1  0
 37 36  1  6
 38 39  1  1
 39 40  1  0
 39 41  1  1
 41 42  2  0
 41 43  1  0
 45 43  1  6
 44 45  1  6
M  END
$$$$
