
     RDKit          3D

 45 49  0  0  0  0  0  0  0  0999 V2000
   -9.1253    5.0050  -38.4362 C   0  0  0  0  0  0  0  0  0  0  0  0
   -8.4146    2.9061  -37.2811 C   0  0  0  0  0  0  0  0  0  0  0  0
   -7.3614    3.1239  -36.1845 C   0  0  1  0  0  0  0  0  0  0  0  0
   -8.2911    5.3480  -36.0627 C   0  0  0  0  0  0  0  0  0  0  0  0
   -8.3509    1.4863  -37.9251 C   0  0  0  0  0  0  0  0  0  0  0  0
   -8.3508    0.2706  -36.9611 C   0  0  0  0  0  0  0  0  0  0  0  0
   -6.0120    2.7041  -36.6905 C   0  0  0  0  0  0  0  0  0  0  0  0
   -4.3632    2.4186  -38.0946 C   0  0  0  0  0  0  0  0  0  0  0  0
   -0.1027   -3.2906  -35.2348 C   0  0  0  0  0  0  0  0  0  0  0  0
   -3.5283    0.2445  -36.9260 C   0  0  0  0  0  0  0  0  0  0  0  0
  -10.3698    1.4571  -41.9609 Cl  0  0  0  0  0  0  0  0  0  0  0  0
   -6.8946    2.6728  -40.4259 C   0  0  0  0  0  0  0  0  0  0  0  0
   -7.8431    2.0030  -41.1858 C   0  0  0  0  0  0  0  0  0  0  0  0
   -9.1782    2.3158  -41.0271 C   0  0  0  0  0  0  0  0  0  0  0  0
   -9.5915    3.2795  -40.1285 C   0  0  0  0  0  0  0  0  0  0  0  0
   -8.6416    3.9587  -39.3487 C   0  0  0  0  0  0  0  0  0  0  0  0
   -7.2819    3.6430  -39.5070 C   0  0  0  0  0  0  0  0  0  0  0  0
   -6.2821    4.2749  -38.7046 N   0  0  0  0  0  0  0  0  0  0  0  0
   -5.8900    4.0753  -37.4394 C   0  0  0  0  0  0  0  0  0  0  0  0
   -4.9640    4.9388  -37.1246 N   0  0  0  0  0  0  0  0  0  0  0  0
   -4.7790    5.6969  -38.2371 N   0  0  0  0  0  0  0  0  0  0  0  0
   -5.5639    5.3127  -39.1956 N   0  0  0  0  0  0  0  0  0  0  0  0
   -9.2057    4.8600  -37.1181 C   0  0  0  0  0  0  0  0  0  0  0  0
   -8.2950    6.5252  -35.6860 O   0  0  0  0  0  0  0  0  0  0  0  0
   -7.4015    4.4536  -35.5819 N   0  0  0  0  0  0  0  0  0  0  0  0
   -5.4385    3.2021  -37.8037 N   0  0  0  0  0  0  0  0  0  0  0  0
   -4.3280    1.4613  -37.1208 C   0  0  0  0  0  0  0  0  0  0  0  0
   -5.3505    1.6707  -36.2284 N   0  0  0  0  0  0  0  0  0  0  0  0
   -2.1341    0.3250  -37.0009 C   0  0  0  0  0  0  0  0  0  0  0  0
   -1.3432   -0.7763  -36.7142 C   0  0  0  0  0  0  0  0  0  0  0  0
   -1.9307   -1.9783  -36.3187 C   0  0  0  0  0  0  0  0  0  0  0  0
   -3.3217   -2.0732  -36.2741 C   0  0  0  0  0  0  0  0  0  0  0  0
   -4.1340   -0.9863  -36.5853 C   0  0  0  0  0  0  0  0  0  0  0  0
   -1.2088   -3.1693  -36.0213 N   0  0  0  0  0  0  0  0  0  0  0  0
    0.6845   -2.4082  -34.9657 O   0  0  0  0  0  0  0  0  0  0  0  0
    0.0096   -4.5614  -34.7983 O   0  0  0  0  0  0  0  0  0  0  0  0
    0.7214   -5.4789  -35.6744 C   0  0  0  0  0  0  0  0  0  0  0  0
   -7.8289   -1.0449  -37.5583 C   0  0  0  0  0  0  0  0  0  0  0  0
   -6.3164   -1.1105  -37.8363 C   0  0  1  0  0  0  0  0  0  0  0  0
   -5.5339   -1.1157  -36.6063 N   0  0  0  0  0  0  0  0  0  0  0  0
   -5.9868   -2.2648  -38.7737 C   0  0  0  0  0  0  0  0  0  0  0  0
   -5.1111   -2.2194  -39.5874 O   0  0  0  0  0  0  0  0  0  0  0  0
   -6.7871   -3.3165  -38.5829 O   0  0  0  0  0  0  0  0  0  0  0  0
   -8.6985   -4.1072  -37.3348 C   0  0  0  0  0  0  0  0  0  0  0  0
   -7.3223   -3.5257  -37.2335 C   0  0  0  0  0  0  0  0  0  0  0  0
  1 16  1  0
  1 23  2  0
  2  3  1  6
  5  2  1  6
  3  7  1  0
  3 25  1  6
  4 23  1  0
  4 24  2  0
  4 25  1  0
  6  5  1  6
  6 38  1  0
  7 26  1  0
  7 28  2  0
  8 26  1  0
  8 27  2  0
  9 34  1  0
  9 35  2  0
  9 36  1  0
 10 27  1  0
 10 29  1  0
 10 33  2  0
 11 14  1  0
 12 13  2  0
 12 17  1  0
 13 14  1  0
 14 15  2  0
 15 16  1  0
 16 17  2  0
 17 18  1  0
 18 19  1  0
 18 22  1  0
 19 20  2  0
 20 21  1  0
 21 22  2  0
 27 28  1  0
 29 30  2  0
 30 31  1  0
 31 32  2  0
 31 34  1  0
 32 33  1  0
 33 40  1  0
 37 36  1  6
 38 39  1  1
 39 40  1  0
 39 41  1  1
 41 42  2  0
 41 43  1  0
 45 43  1  6
 44 45  1  6
M  END
$$$$
