
     RDKit          3D

 45 49  0  0  0  0  0  0  0  0999 V2000
   13.7195   39.3804  103.6442 C   0  0  0  0  0  0  0  0  0  0  0  0
   14.6307   36.5596  101.9686 C   0  0  0  0  0  0  0  0  0  0  0  0
   15.1257   37.4311  100.8046 C   0  0  1  0  0  0  0  0  0  0  0  0
   13.4123   39.0978  101.1397 C   0  0  0  0  0  0  0  0  0  0  0  0
   15.0681   35.0664  101.8512 C   0  0  0  0  0  0  0  0  0  0  0  0
   16.5736   34.7869  101.6012 C   0  0  0  0  0  0  0  0  0  0  0  0
   14.8002   36.7633   99.5004 C   0  0  0  0  0  0  0  0  0  0  0  0
   13.6724   35.6008   98.0347 C   0  0  0  0  0  0  0  0  0  0  0  0
   19.6286   32.4008   94.3139 C   0  0  0  0  0  0  0  0  0  0  0  0
   15.8147   34.7233   96.8391 C   0  0  0  0  0  0  0  0  0  0  0  0
   16.1076   38.2003  108.0560 Cl  0  0  0  0  0  0  0  0  0  0  0  0
   12.7176   36.9439  106.3707 C   0  0  0  0  0  0  0  0  0  0  0  0
   13.7681   37.1151  107.2611 C   0  0  0  0  0  0  0  0  0  0  0  0
   14.7767   38.0053  106.9516 C   0  0  0  0  0  0  0  0  0  0  0  0
   14.7646   38.7287  105.7753 C   0  0  0  0  0  0  0  0  0  0  0  0
   13.7107   38.5585  104.8631 C   0  0  0  0  0  0  0  0  0  0  0  0
   12.6826   37.6532  105.1743 C   0  0  0  0  0  0  0  0  0  0  0  0
   11.6125   37.4126  104.2579 N   0  0  0  0  0  0  0  0  0  0  0  0
   10.4649   38.0644  104.0289 C   0  0  0  0  0  0  0  0  0  0  0  0
    9.7750   37.4335  103.1188 N   0  0  0  0  0  0  0  0  0  0  0  0
   10.5260   36.3546  102.7746 N   0  0  0  0  0  0  0  0  0  0  0  0
   11.6328   36.3257  103.4503 N   0  0  0  0  0  0  0  0  0  0  0  0
   13.0009   39.1074  102.5607 C   0  0  0  0  0  0  0  0  0  0  0  0
   12.6006   39.2620  100.2221 O   0  0  0  0  0  0  0  0  0  0  0  0
   14.7125   38.8290  100.8953 N   0  0  0  0  0  0  0  0  0  0  0  0
   13.5562   36.3967   99.1336 N   0  0  0  0  0  0  0  0  0  0  0  0
   15.0110   35.5215   97.7744 C   0  0  0  0  0  0  0  0  0  0  0  0
   15.7053   36.2810   98.6836 N   0  0  0  0  0  0  0  0  0  0  0  0
   15.4751   34.7151   95.4824 C   0  0  0  0  0  0  0  0  0  0  0  0
   16.2730   34.0645   94.5549 C   0  0  0  0  0  0  0  0  0  0  0  0
   17.4464   33.4288   94.9618 C   0  0  0  0  0  0  0  0  0  0  0  0
   17.7726   33.4062   96.3179 C   0  0  0  0  0  0  0  0  0  0  0  0
   16.9694   34.0301   97.2684 C   0  0  0  0  0  0  0  0  0  0  0  0
   18.3223   32.7188   94.0919 N   0  0  0  0  0  0  0  0  0  0  0  0
   20.3263   32.8256   95.2102 O   0  0  0  0  0  0  0  0  0  0  0  0
   20.0558   31.5403   93.3678 O   0  0  0  0  0  0  0  0  0  0  0  0
   21.4319   31.7054   92.9262 C   0  0  0  0  0  0  0  0  0  0  0  0
   16.9015   33.3966  101.0362 C   0  0  0  0  0  0  0  0  0  0  0  0
   16.4869   33.1431   99.5757 C   0  0  1  0  0  0  0  0  0  0  0  0
   17.2708   33.9385   98.6387 N   0  0  0  0  0  0  0  0  0  0  0  0
   16.4899   31.6526   99.2619 C   0  0  0  0  0  0  0  0  0  0  0  0
   15.9166   30.8410   99.9280 O   0  0  0  0  0  0  0  0  0  0  0  0
   17.2051   31.3661   98.1714 O   0  0  0  0  0  0  0  0  0  0  0  0
   18.8034   33.1208   98.6216 C   0  0  0  0  0  0  0  0  0  0  0  0
   18.6338   31.6968   98.1909 C   0  0  0  0  0  0  0  0  0  0  0  0
  1 16  1  0
  1 23  2  0
  2  3  1  6
  5  2  1  6
  3  7  1  0
  3 25  1  6
  4 23  1  0
  4 24  2  0
  4 25  1  0
  6  5  1  6
  6 38  1  0
  7 26  1  0
  7 28  2  0
  8 26  1  0
  8 27  2  0
  9 34  1  0
  9 35  2  0
  9 36  1  0
 10 27  1  0
 10 29  1  0
 10 33  2  0
 11 14  1  0
 12 13  2  0
 12 17  1  0
 13 14  1  0
 14 15  2  0
 15 16  1  0
 16 17  2  0
 17 18  1  0
 18 19  1  0
 18 22  1  0
 19 20  2  0
 20 21  1  0
 21 22  2  0
 27 28  1  0
 29 30  2  0
 30 31  1  0
 31 32  2  0
 31 34  1  0
 32 33  1  0
 33 40  1  0
 37 36  1  6
 38 39  1  1
 39 40  1  0
 39 41  1  6
 41 42  2  0
 41 43  1  0
 45 43  1  6
 44 45  1  6
M  END
$$$$
