
     RDKit          3D

 45 49  0  0  0  0  0  0  0  0999 V2000
  152.9178   13.7782    2.2665 C   0  0  0  0  0  0  0  0  0  0  0  0
  154.2769   14.1030   -1.4200 C   0  0  0  0  0  0  0  0  0  0  0  0
  154.1738   13.5114   -0.0062 C   0  0  1  0  0  0  0  0  0  0  0  0
  153.4629   11.5419    1.1946 C   0  0  0  0  0  0  0  0  0  0  0  0
  154.6336   15.6220   -1.4290 C   0  0  0  0  0  0  0  0  0  0  0  0
  155.8630   16.0659   -0.5930 C   0  0  0  0  0  0  0  0  0  0  0  0
  153.2986   14.3856    0.8440 C   0  0  0  0  0  0  0  0  0  0  0  0
  151.6429   15.7088    1.3722 C   0  0  0  0  0  0  0  0  0  0  0  0
  155.2885   19.9390    6.7098 C   0  0  0  0  0  0  0  0  0  0  0  0
  153.0158   16.9689    3.1933 C   0  0  0  0  0  0  0  0  0  0  0  0
  148.3761   14.9357    0.1233 Cl  0  0  0  0  0  0  0  0  0  0  0  0
  150.4107   16.4669    3.1936 C   0  0  0  0  0  0  0  0  0  0  0  0
  149.4245   16.2302    2.2465 C   0  0  0  0  0  0  0  0  0  0  0  0
  149.6010   15.2152    1.3277 C   0  0  0  0  0  0  0  0  0  0  0  0
  150.7374   14.4306    1.3290 C   0  0  0  0  0  0  0  0  0  0  0  0
  151.7456   14.6655    2.2778 C   0  0  0  0  0  0  0  0  0  0  0  0
  151.5698   15.6977    3.2143 C   0  0  0  0  0  0  0  0  0  0  0  0
  152.5869   16.0039    4.1706 N   0  0  0  0  0  0  0  0  0  0  0  0
  153.4834   16.9969    4.2387 C   0  0  0  0  0  0  0  0  0  0  0  0
  154.2468   16.8291    5.2834 N   0  0  0  0  0  0  0  0  0  0  0  0
  153.8032   15.6918    5.8803 N   0  0  0  0  0  0  0  0  0  0  0  0
  152.8072   15.1821    5.2242 N   0  0  0  0  0  0  0  0  0  0  0  0
  152.8448   12.4544    2.1814 C   0  0  0  0  0  0  0  0  0  0  0  0
  153.6933   10.3557    1.4545 O   0  0  0  0  0  0  0  0  0  0  0  0
  153.8277   12.0927    0.0172 N   0  0  0  0  0  0  0  0  0  0  0  0
  152.0296   14.7122    0.5286 N   0  0  0  0  0  0  0  0  0  0  0  0
  152.7162   15.9450    2.1835 C   0  0  0  0  0  0  0  0  0  0  0  0
  153.7380   15.0862    1.8613 N   0  0  0  0  0  0  0  0  0  0  0  0
  152.0947   17.2065    4.2185 C   0  0  0  0  0  0  0  0  0  0  0  0
  152.3906   18.0840    5.2494 C   0  0  0  0  0  0  0  0  0  0  0  0
  153.6293   18.7246    5.2917 C   0  0  0  0  0  0  0  0  0  0  0  0
  154.5386   18.5163    4.2545 C   0  0  0  0  0  0  0  0  0  0  0  0
  154.2488   17.6601    3.1959 C   0  0  0  0  0  0  0  0  0  0  0  0
  154.0217   19.6558    6.2951 N   0  0  0  0  0  0  0  0  0  0  0  0
  155.7600   19.6819    7.7971 O   0  0  0  0  0  0  0  0  0  0  0  0
  155.9586   20.5747    5.7276 O   0  0  0  0  0  0  0  0  0  0  0  0
  155.2325   20.7765    4.4834 C   0  0  0  0  0  0  0  0  0  0  0  0
  155.9166   17.5601   -0.2409 C   0  0  0  0  0  0  0  0  0  0  0  0
  154.8849   18.0512    0.7906 C   0  0  1  0  0  0  0  0  0  0  0  0
  155.1436   17.5146    2.1211 N   0  0  0  0  0  0  0  0  0  0  0  0
  154.7655   19.5693    0.7577 C   0  0  0  0  0  0  0  0  0  0  0  0
  153.7610   20.1544    1.0400 O   0  0  0  0  0  0  0  0  0  0  0  0
  155.9011   20.1584    0.3753 O   0  0  0  0  0  0  0  0  0  0  0  0
  158.0028   19.0422   -0.0405 C   0  0  0  0  0  0  0  0  0  0  0  0
  156.7059   19.4812   -0.6467 C   0  0  0  0  0  0  0  0  0  0  0  0
  1 16  1  0
  1 23  2  0
  2  3  1  6
  5  2  1  6
  3  7  1  0
  3 25  1  6
  4 23  1  0
  4 24  2  0
  4 25  1  0
  6  5  1  6
  6 38  1  0
  7 26  1  0
  7 28  2  0
  8 26  1  0
  8 27  2  0
  9 34  1  0
  9 35  2  0
  9 36  1  0
 10 27  1  0
 10 29  1  0
 10 33  2  0
 11 14  1  0
 12 13  2  0
 12 17  1  0
 13 14  1  0
 14 15  2  0
 15 16  1  0
 16 17  2  0
 17 18  1  0
 18 19  1  0
 18 22  1  0
 19 20  2  0
 20 21  1  0
 21 22  2  0
 27 28  1  0
 29 30  2  0
 30 31  1  0
 31 32  2  0
 31 34  1  0
 32 33  1  0
 33 40  1  0
 37 36  1  6
 38 39  1  1
 39 40  1  0
 39 41  1  1
 41 42  2  0
 41 43  1  0
 45 43  1  6
 44 45  1  6
M  END
$$$$
