
     RDKit          3D

 45 49  0  0  0  0  0  0  0  0999 V2000
  161.8285  -70.6096  217.2237 C   0  0  0  0  0  0  0  0  0  0  0  0
  162.0542  -71.9099  213.2906 C   0  0  0  0  0  0  0  0  0  0  0  0
  162.1313  -70.4145  213.6331 C   0  0  1  0  0  0  0  0  0  0  0  0
  163.5160  -69.7947  215.5105 C   0  0  0  0  0  0  0  0  0  0  0  0
  160.6673  -72.3420  212.7210 C   0  0  0  0  0  0  0  0  0  0  0  0
  160.0965  -71.5122  211.5408 C   0  0  0  0  0  0  0  0  0  0  0  0
  160.9425  -70.0250  214.4627 C   0  0  0  0  0  0  0  0  0  0  0  0
  159.3612  -70.1964  215.9597 C   0  0  0  0  0  0  0  0  0  0  0  0
  153.0878  -66.9944  213.1629 C   0  0  0  0  0  0  0  0  0  0  0  0
  157.7127  -68.6784  214.6303 C   0  0  0  0  0  0  0  0  0  0  0  0
  159.3293  -69.7489  221.6479 Cl  0  0  0  0  0  0  0  0  0  0  0  0
  163.1977  -69.9813  220.7029 C   0  0  0  0  0  0  0  0  0  0  0  0
  162.0165  -69.8439  221.4183 C   0  0  0  0  0  0  0  0  0  0  0  0
  160.8102  -69.9476  220.7553 C   0  0  0  0  0  0  0  0  0  0  0  0
  160.7520  -70.1841  219.3960 C   0  0  0  0  0  0  0  0  0  0  0  0
  161.9406  -70.3175  218.6601 C   0  0  0  0  0  0  0  0  0  0  0  0
  163.1703  -70.2121  219.3311 C   0  0  0  0  0  0  0  0  0  0  0  0
  164.4063  -70.2961  218.6184 N   0  0  0  0  0  0  0  0  0  0  0  0
  165.2806  -69.3598  218.2269 C   0  0  0  0  0  0  0  0  0  0  0  0
  166.2493  -69.9170  217.5535 N   0  0  0  0  0  0  0  0  0  0  0  0
  165.9611  -71.2448  217.5309 N   0  0  0  0  0  0  0  0  0  0  0  0
  164.8564  -71.4901  218.1648 N   0  0  0  0  0  0  0  0  0  0  0  0
  162.2438  -69.7885  216.2656 C   0  0  0  0  0  0  0  0  0  0  0  0
  164.6012  -69.5619  216.0544 O   0  0  0  0  0  0  0  0  0  0  0  0
  163.4204  -69.9987  214.1794 N   0  0  0  0  0  0  0  0  0  0  0  0
  160.6141  -70.6151  215.6289 N   0  0  0  0  0  0  0  0  0  0  0  0
  158.9779  -69.3481  214.9600 C   0  0  0  0  0  0  0  0  0  0  0  0
  159.9922  -69.2254  214.0426 N   0  0  0  0  0  0  0  0  0  0  0  0
  157.0589  -67.9316  215.6156 C   0  0  0  0  0  0  0  0  0  0  0  0
  155.9237  -67.1967  215.3128 C   0  0  0  0  0  0  0  0  0  0  0  0
  155.4318  -67.1712  214.0074 C   0  0  0  0  0  0  0  0  0  0  0  0
  156.0610  -67.9402  213.0283 C   0  0  0  0  0  0  0  0  0  0  0  0
  157.1860  -68.7069  213.3189 C   0  0  0  0  0  0  0  0  0  0  0  0
  154.2650  -66.4643  213.5990 N   0  0  0  0  0  0  0  0  0  0  0  0
  152.9039  -67.5537  212.1028 O   0  0  0  0  0  0  0  0  0  0  0  0
  152.1268  -66.7931  214.0870 O   0  0  0  0  0  0  0  0  0  0  0  0
  151.0663  -67.7876  214.1354 C   0  0  0  0  0  0  0  0  0  0  0  0
  158.5831  -71.6440  211.3129 C   0  0  0  0  0  0  0  0  0  0  0  0
  157.6783  -70.9878  212.3713 C   0  0  1  0  0  0  0  0  0  0  0  0
  157.7673  -69.5330  212.3409 N   0  0  0  0  0  0  0  0  0  0  0  0
  156.2527  -71.5140  212.2675 C   0  0  0  0  0  0  0  0  0  0  0  0
  155.6978  -72.0851  213.1602 O   0  0  0  0  0  0  0  0  0  0  0  0
  155.7080  -71.2685  211.0734 O   0  0  0  0  0  0  0  0  0  0  0  0
  154.9670  -69.7738  209.3261 C   0  0  0  0  0  0  0  0  0  0  0  0
  155.8452  -69.9128  210.5309 C   0  0  0  0  0  0  0  0  0  0  0  0
  1 16  1  0
  1 23  2  0
  2  3  1  6
  5  2  1  6
  3  7  1  0
  3 25  1  1
  4 23  1  0
  4 24  2  0
  4 25  1  0
  6  5  1  6
  6 38  1  0
  7 26  1  0
  7 28  2  0
  8 26  1  0
  8 27  2  0
  9 34  1  0
  9 35  2  0
  9 36  1  0
 10 27  1  0
 10 29  1  0
 10 33  2  0
 11 14  1  0
 12 13  2  0
 12 17  1  0
 13 14  1  0
 14 15  2  0
 15 16  1  0
 16 17  2  0
 17 18  1  0
 18 19  1  0
 18 22  1  0
 19 20  2  0
 20 21  1  0
 21 22  2  0
 27 28  1  0
 29 30  2  0
 30 31  1  0
 31 32  2  0
 31 34  1  0
 32 33  1  0
 33 40  1  0
 37 36  1  6
 38 39  1  1
 39 40  1  0
 39 41  1  6
 41 42  2  0
 41 43  1  0
 45 43  1  6
 44 45  1  6
M  END
$$$$
