
     RDKit          3D

 45 49  0  0  0  0  0  0  0  0999 V2000
-6586.5356  -78.6113 1891.3911 C   0  0  0  0  0  0  0  0  0  0  0  0
-6583.4565  -75.5726 1888.5377 C   0  0  0  0  0  0  0  0  0  0  0  0
-6584.1948  -76.5195 1889.4958 C   0  0  1  0  0  0  0  0  0  0  0  0
-6584.7261  -76.8825 1891.8220 C   0  0  0  0  0  0  0  0  0  0  0  0
-6583.6499  -75.9422 1887.0342 C   0  0  0  0  0  0  0  0  0  0  0  0
-6585.1060  -76.1485 1886.5366 C   0  0  0  0  0  0  0  0  0  0  0  0
-6583.8848  -77.9434 1889.1357 C   0  0  0  0  0  0  0  0  0  0  0  0
-6582.7207  -79.6674 1888.4691 C   0  0  0  0  0  0  0  0  0  0  0  0
-6586.7754  -84.7608 1884.6616 C   0  0  0  0  0  0  0  0  0  0  0  0
-6584.7900  -80.8744 1887.4438 C   0  0  0  0  0  0  0  0  0  0  0  0
-6590.9780  -80.0139 1893.5953 Cl  0  0  0  0  0  0  0  0  0  0  0  0
-6588.0723  -77.5048 1894.6763 C   0  0  0  0  0  0  0  0  0  0  0  0
-6589.2383  -78.2561 1894.6750 C   0  0  0  0  0  0  0  0  0  0  0  0
-6589.5005  -79.0918 1893.6091 C   0  0  0  0  0  0  0  0  0  0  0  0
-6588.6318  -79.1963 1892.5415 C   0  0  0  0  0  0  0  0  0  0  0  0
-6587.4512  -78.4355 1892.5276 C   0  0  0  0  0  0  0  0  0  0  0  0
-6587.1782  -77.5836 1893.6113 C   0  0  0  0  0  0  0  0  0  0  0  0
-6586.0156  -76.7563 1893.6217 N   0  0  0  0  0  0  0  0  0  0  0  0
-6585.2993  -76.2005 1892.6339 C   0  0  0  0  0  0  0  0  0  0  0  0
-6584.2773  -75.5624 1893.1346 N   0  0  0  0  0  0  0  0  0  0  0  0
-6584.3677  -75.7307 1894.4805 N   0  0  0  0  0  0  0  0  0  0  0  0
-6585.4028  -76.4467 1894.7909 N   0  0  0  0  0  0  0  0  0  0  0  0
-6585.2783  -78.1813 1891.3789 C   0  0  0  0  0  0  0  0  0  0  0  0
-6584.9585  -76.4217 1892.9452 O   0  0  0  0  0  0  0  0  0  0  0  0
-6584.0127  -76.1926 1890.9076 N   0  0  0  0  0  0  0  0  0  0  0  0
-6582.6382  -78.4475 1889.0685 N   0  0  0  0  0  0  0  0  0  0  0  0
-6584.0464  -79.8561 1888.1974 C   0  0  0  0  0  0  0  0  0  0  0  0
-6584.7695  -78.7799 1888.6488 N   0  0  0  0  0  0  0  0  0  0  0  0
-6584.5815  -82.2266 1887.7336 C   0  0  0  0  0  0  0  0  0  0  0  0
-6585.3423  -83.2097 1887.1226 C   0  0  0  0  0  0  0  0  0  0  0  0
-6586.3506  -82.8591 1886.2250 C   0  0  0  0  0  0  0  0  0  0  0  0
-6586.5439  -81.5144 1885.9077 C   0  0  0  0  0  0  0  0  0  0  0  0
-6585.7695  -80.5140 1886.4900 C   0  0  0  0  0  0  0  0  0  0  0  0
-6587.1748  -83.7923 1885.5323 N   0  0  0  0  0  0  0  0  0  0  0  0
-6585.7651  -84.7454 1883.9890 O   0  0  0  0  0  0  0  0  0  0  0  0
-6587.6812  -85.7565 1884.6372 O   0  0  0  0  0  0  0  0  0  0  0  0
-6587.1768  -87.0776 1884.2986 C   0  0  0  0  0  0  0  0  0  0  0  0
-6585.2505  -76.9440 1885.2303 C   0  0  0  0  0  0  0  0  0  0  0  0
-6584.9351  -78.4485 1885.3147 C   0  0  1  0  0  0  0  0  0  0  0  0
-6585.9238  -79.1697 1886.1078 N   0  0  0  0  0  0  0  0  0  0  0  0
-6584.7207  -79.0365 1883.9263 C   0  0  0  0  0  0  0  0  0  0  0  0
-6584.0894  -78.4856 1883.0713 O   0  0  0  0  0  0  0  0  0  0  0  0
-6585.3164  -80.2218 1883.7803 O   0  0  0  0  0  0  0  0  0  0  0  0
-6587.6968  -79.8775 1883.5382 C   0  0  0  0  0  0  0  0  0  0  0  0
-6586.4434  -80.3047 1882.8418 C   0  0  0  0  0  0  0  0  0  0  0  0
  1 16  1  0
  1 23  2  0
  2  3  1  6
  5  2  1  6
  3  7  1  0
  3 25  1  1
  4 23  1  0
  4 24  2  0
  4 25  1  0
  6  5  1  6
  6 38  1  0
  7 26  1  0
  7 28  2  0
  8 26  1  0
  8 27  2  0
  9 34  1  0
  9 35  2  0
  9 36  1  0
 10 27  1  0
 10 29  1  0
 10 33  2  0
 11 14  1  0
 12 13  2  0
 12 17  1  0
 13 14  1  0
 14 15  2  0
 15 16  1  0
 16 17  2  0
 17 18  1  0
 18 19  1  0
 18 22  1  0
 19 20  2  0
 20 21  1  0
 21 22  2  0
 27 28  1  0
 29 30  2  0
 30 31  1  0
 31 32  2  0
 31 34  1  0
 32 33  1  0
 33 40  1  0
 37 36  1  6
 38 39  1  1
 39 40  1  0
 39 41  1  6
 41 42  2  0
 41 43  1  0
 45 43  1  6
 44 45  1  6
M  END
$$$$
