
     RDKit          3D

 15 16  0  0  0  0  0  0  0  0999 V2000
  -37.5925    0.0264  -21.8075 C   0  0  0  0  0  0  0  0  0  0  0  0
  -34.6179    1.4801  -20.3665 C   0  0  0  0  0  0  0  0  0  0  0  0
  -38.3596   -6.5787  -23.3929 C   0  0  0  0  0  0  0  0  0  0  0  0
  -38.9154   -5.2211  -23.5054 N   0  0  0  0  0  0  0  0  0  0  0  0
  -39.7395   -4.8164  -24.4620 C   0  0  0  0  0  0  0  0  0  0  0  0
  -40.0260   -3.5232  -24.2153 C   0  0  0  0  0  0  0  0  0  0  0  0
  -39.3301   -3.1666  -23.0514 C   0  0  0  0  0  0  0  0  0  0  0  0
  -38.6780   -4.2043  -22.6430 N   0  0  0  0  0  0  0  0  0  0  0  0
  -39.3321   -1.7885  -22.3466 C   0  0  0  0  0  0  0  0  0  0  0  0
  -40.2841   -1.1027  -22.4739 O   0  0  0  0  0  0  0  0  0  0  0  0
  -38.1718   -1.3208  -21.5625 N   0  0  0  0  0  0  0  0  0  0  0  0
  -36.1438    0.0087  -21.4252 C   0  0  2  0  0  0  0  0  0  0  0  0
  -35.8452    1.1091  -20.2230 C   0  0  0  0  0  0  0  0  0  0  0  0
  -34.2299    1.1774  -21.8639 C   0  0  0  0  0  0  0  0  0  0  0  0
  -35.4102    0.3593  -22.4463 O   0  0  0  0  0  0  0  0  0  0  0  0
  1 11  1  6
 13  2  1  6
  2 14  1  1
  3  4  1  6
  4  5  1  0
  4  8  1  0
  5  6  2  0
  6  7  1  0
  7  8  2  0
  7  9  1  0
  9 10  2  0
  9 11  1  0
 12  1  1  0
 12 13  1  0
 12 15  1  6
 14 15  1  1
M  END
$$$$
