
     RDKit          3D

 15 16  0  0  0  0  0  0  0  0999 V2000
   47.8250   89.8140  285.0018 C   0  0  0  0  0  0  0  0  0  0  0  0
   49.4263   91.8997  282.5271 C   0  0  0  0  0  0  0  0  0  0  0  0
   44.8088   96.0243  284.7444 C   0  0  0  0  0  0  0  0  0  0  0  0
   45.5200   94.9521  285.4579 N   0  0  0  0  0  0  0  0  0  0  0  0
   45.2742   94.5802  286.7066 C   0  0  0  0  0  0  0  0  0  0  0  0
   46.1213   93.5721  286.9920 C   0  0  0  0  0  0  0  0  0  0  0  0
   46.8942   93.3514  285.8432 C   0  0  0  0  0  0  0  0  0  0  0  0
   46.5087   94.1874  284.9368 N   0  0  0  0  0  0  0  0  0  0  0  0
   48.0086   92.2938  285.6556 C   0  0  0  0  0  0  0  0  0  0  0  0
   49.0271   92.6424  285.1719 O   0  0  0  0  0  0  0  0  0  0  0  0
   47.8049   90.8819  286.0360 N   0  0  0  0  0  0  0  0  0  0  0  0
   48.8998   90.1237  284.0049 C   0  0  2  0  0  0  0  0  0  0  0  0
   48.9885   91.7557  283.7320 C   0  0  0  0  0  0  0  0  0  0  0  0
   49.1076   90.5543  281.7704 C   0  0  0  0  0  0  0  0  0  0  0  0
   48.6176   89.5661  282.8591 O   0  0  0  0  0  0  0  0  0  0  0  0
  1 11  1  6
 13  2  1  6
  2 14  1  1
  3  4  1  6
  4  5  1  0
  4  8  1  0
  5  6  2  0
  6  7  1  0
  7  8  2  0
  7  9  1  0
  9 10  2  0
  9 11  1  0
 12  1  1  0
 12 13  1  0
 12 15  1  6
 14 15  1  1
M  END
$$$$
