
     RDKit          3D

 15 16  0  0  0  0  0  0  0  0999 V2000
  -57.2441   19.4601   78.4475 C   0  0  0  0  0  0  0  0  0  0  0  0
  -60.7352   18.5385   78.4733 C   0  0  0  0  0  0  0  0  0  0  0  0
  -62.2483   19.1164   80.9873 C   0  0  0  0  0  0  0  0  0  0  0  0
  -61.1398   20.0804   81.0687 N   0  0  0  0  0  0  0  0  0  0  0  0
  -61.1611   21.2018   81.7760 C   0  0  0  0  0  0  0  0  0  0  0  0
  -59.9675   21.8017   81.6005 C   0  0  0  0  0  0  0  0  0  0  0  0
  -59.2189   20.9782   80.7477 C   0  0  0  0  0  0  0  0  0  0  0  0
  -59.9425   19.9504   80.4495 N   0  0  0  0  0  0  0  0  0  0  0  0
  -57.7751   21.2202   80.2449 C   0  0  0  0  0  0  0  0  0  0  0  0
  -57.0038   21.7111   80.9912 O   0  0  0  0  0  0  0  0  0  0  0  0
  -57.3708   20.8812   78.8660 N   0  0  0  0  0  0  0  0  0  0  0  0
  -58.4229   18.6943   78.9664 C   0  0  2  0  0  0  0  0  0  0  0  0
  -59.6230   18.6293   77.8258 C   0  0  0  0  0  0  0  0  0  0  0  0
  -60.4593   19.1003   79.9198 C   0  0  0  0  0  0  0  0  0  0  0  0
  -58.9253   19.3022   80.0063 O   0  0  0  0  0  0  0  0  0  0  0  0
  1 11  1  6
 13  2  1  6
  2 14  1  1
  3  4  1  6
  4  5  1  0
  4  8  1  0
  5  6  2  0
  6  7  1  0
  7  8  2  0
  7  9  1  0
  9 10  2  0
  9 11  1  0
 12  1  1  0
 12 13  1  0
 12 15  1  1
 14 15  1  1
M  END
$$$$
