
     RDKit          3D

 15 16  0  0  0  0  0  0  0  0999 V2000
   11.6308   45.0345   33.1894 C   0  0  0  0  0  0  0  0  0  0  0  0
   10.3149   41.6753   33.3377 C   0  0  0  0  0  0  0  0  0  0  0  0
   10.9827   43.4150   26.9313 C   0  0  0  0  0  0  0  0  0  0  0  0
   11.9224   44.1359   27.8042 N   0  0  0  0  0  0  0  0  0  0  0  0
   13.0202   44.7532   27.3898 C   0  0  0  0  0  0  0  0  0  0  0  0
   13.6029   45.2947   28.4773 C   0  0  0  0  0  0  0  0  0  0  0  0
   12.7936   44.9726   29.5761 C   0  0  0  0  0  0  0  0  0  0  0  0
   11.7899   44.2837   29.1438 N   0  0  0  0  0  0  0  0  0  0  0  0
   13.0244   45.3683   31.0547 C   0  0  0  0  0  0  0  0  0  0  0  0
   13.6015   46.3738   31.2752 O   0  0  0  0  0  0  0  0  0  0  0  0
   12.5698   44.5070   32.1643 N   0  0  0  0  0  0  0  0  0  0  0  0
   10.9798   43.8813   33.8905 C   0  0  2  0  0  0  0  0  0  0  0  0
   11.3125   42.4600   33.1065 C   0  0  0  0  0  0  0  0  0  0  0  0
    9.0962   42.5993   33.7186 C   0  0  0  0  0  0  0  0  0  0  0  0
    9.6826   44.0253   33.8731 O   0  0  0  0  0  0  0  0  0  0  0  0
  1 11  1  6
 13  2  1  6
  2 14  1  1
  3  4  1  6
  4  5  1  0
  4  8  1  0
  5  6  2  0
  6  7  1  0
  7  8  2  0
  7  9  1  0
  9 10  2  0
  9 11  1  0
 12  1  1  0
 12 13  1  0
 12 15  1  6
 14 15  1  1
M  END
$$$$
