
     RDKit          3D

 15 16  0  0  0  0  0  0  0  0999 V2000
    8.3470 -129.5874  -66.8302 C   0  0  0  0  0  0  0  0  0  0  0  0
    8.4683 -133.0575  -67.8210 C   0  0  0  0  0  0  0  0  0  0  0  0
   12.0117 -130.2776  -70.6782 C   0  0  0  0  0  0  0  0  0  0  0  0
   10.5598 -130.4161  -70.4841 N   0  0  0  0  0  0  0  0  0  0  0  0
    9.8280 -131.4259  -70.9346 C   0  0  0  0  0  0  0  0  0  0  0  0
    8.5574 -131.1947  -70.5504 C   0  0  0  0  0  0  0  0  0  0  0  0
    8.5605 -129.9871  -69.8380 C   0  0  0  0  0  0  0  0  0  0  0  0
    9.7740 -129.5451  -69.8075 N   0  0  0  0  0  0  0  0  0  0  0  0
    7.3468 -129.2872  -69.1797 C   0  0  0  0  0  0  0  0  0  0  0  0
    6.5238 -128.8241  -69.8875 O   0  0  0  0  0  0  0  0  0  0  0  0
    7.2267 -129.1678  -67.7131 N   0  0  0  0  0  0  0  0  0  0  0  0
    8.2351 -131.0588  -66.5700 C   0  0  2  0  0  0  0  0  0  0  0  0
    9.0647 -131.9182  -67.7184 C   0  0  0  0  0  0  0  0  0  0  0  0
    7.0028 -132.8471  -67.2804 C   0  0  0  0  0  0  0  0  0  0  0  0
    6.9867 -131.4310  -66.6511 O   0  0  0  0  0  0  0  0  0  0  0  0
  1 11  1  6
 13  2  1  6
  2 14  1  1
  3  4  1  6
  4  5  1  0
  4  8  1  0
  5  6  2  0
  6  7  1  0
  7  8  2  0
  7  9  1  0
  9 10  2  0
  9 11  1  0
 12  1  1  0
 12 13  1  0
 12 15  1  6
 14 15  1  1
M  END
$$$$
