
     RDKit          3D

 15 16  0  0  0  0  0  0  0  0999 V2000
  -99.7431   95.9839  -68.5196 C   0  0  0  0  0  0  0  0  0  0  0  0
 -100.5197   94.3212  -71.6294 C   0  0  0  0  0  0  0  0  0  0  0  0
  -95.3474   92.8353  -64.5715 C   0  0  0  0  0  0  0  0  0  0  0  0
  -95.5575   94.0261  -65.4097 N   0  0  0  0  0  0  0  0  0  0  0  0
  -94.8822   95.1615  -65.2963 C   0  0  0  0  0  0  0  0  0  0  0  0
  -95.3574   95.9992  -66.2385 C   0  0  0  0  0  0  0  0  0  0  0  0
  -96.3589   95.3056  -66.9328 C   0  0  0  0  0  0  0  0  0  0  0  0
  -96.4538   94.1236  -66.4202 N   0  0  0  0  0  0  0  0  0  0  0  0
  -97.2086   95.8280  -68.1164 C   0  0  0  0  0  0  0  0  0  0  0  0
  -96.7826   95.6885  -69.2081 O   0  0  0  0  0  0  0  0  0  0  0  0
  -98.4994   96.5106  -67.8979 N   0  0  0  0  0  0  0  0  0  0  0  0
  -99.4453   95.5753  -69.9301 C   0  0  2  0  0  0  0  0  0  0  0  0
 -100.8431   95.1904  -70.7324 C   0  0  0  0  0  0  0  0  0  0  0  0
  -99.1701   93.6631  -71.1502 C   0  0  0  0  0  0  0  0  0  0  0  0
  -98.7017   94.5027  -69.9348 O   0  0  0  0  0  0  0  0  0  0  0  0
  1 11  1  6
 13  2  1  6
  2 14  1  1
  3  4  1  6
  4  5  1  0
  4  8  1  0
  5  6  2  0
  6  7  1  0
  7  8  2  0
  7  9  1  0
  9 10  2  0
  9 11  1  0
 12  1  1  0
 12 13  1  0
 12 15  1  1
 14 15  1  1
M  END
$$$$
