
     RDKit          3D

 15 16  0  0  0  0  0  0  0  0999 V2000
   30.9371   44.8417   40.9706 C   0  0  0  0  0  0  0  0  0  0  0  0
   30.7892   42.2707   43.5016 C   0  0  0  0  0  0  0  0  0  0  0  0
   37.1943   44.8443   39.7398 C   0  0  0  0  0  0  0  0  0  0  0  0
   35.7643   44.5010   39.7858 N   0  0  0  0  0  0  0  0  0  0  0  0
   35.2388   43.5427   40.5367 C   0  0  0  0  0  0  0  0  0  0  0  0
   33.9113   43.5444   40.3067 C   0  0  0  0  0  0  0  0  0  0  0  0
   33.6605   44.5613   39.3745 C   0  0  0  0  0  0  0  0  0  0  0  0
   34.7871   45.1229   39.0843 N   0  0  0  0  0  0  0  0  0  0  0  0
   32.2888   44.9735   38.7875 C   0  0  0  0  0  0  0  0  0  0  0  0
   32.2782   45.5567   37.7616 O   0  0  0  0  0  0  0  0  0  0  0  0
   31.0268   44.6803   39.4953 N   0  0  0  0  0  0  0  0  0  0  0  0
   31.4091   43.5799   41.6266 C   0  0  2  0  0  0  0  0  0  0  0  0
   30.2041   42.9183   42.5516 C   0  0  0  0  0  0  0  0  0  0  0  0
   32.2326   42.8879   43.6425 C   0  0  0  0  0  0  0  0  0  0  0  0
   32.4010   43.8424   42.4334 O   0  0  0  0  0  0  0  0  0  0  0  0
  1 11  1  6
 13  2  1  6
  2 14  1  1
  3  4  1  6
  4  5  1  0
  4  8  1  0
  5  6  2  0
  6  7  1  0
  7  8  2  0
  7  9  1  0
  9 10  2  0
  9 11  1  0
 12  1  1  0
 12 13  1  0
 12 15  1  1
 14 15  1  1
M  END
$$$$
