
     RDKit          3D

 15 16  0  0  0  0  0  0  0  0999 V2000
  -67.0627   -3.1276  -69.6385 C   0  0  0  0  0  0  0  0  0  0  0  0
  -69.1644   -4.8980  -71.9809 C   0  0  0  0  0  0  0  0  0  0  0  0
  -66.9545   -2.6049  -63.9146 C   0  0  0  0  0  0  0  0  0  0  0  0
  -67.8142   -2.6073  -65.1085 N   0  0  0  0  0  0  0  0  0  0  0  0
  -68.9310   -3.3105  -65.2367 C   0  0  0  0  0  0  0  0  0  0  0  0
  -69.4290   -3.0408  -66.4593 C   0  0  0  0  0  0  0  0  0  0  0  0
  -68.5511   -2.1307  -67.0652 C   0  0  0  0  0  0  0  0  0  0  0  0
  -67.5959   -1.8827  -66.2316 N   0  0  0  0  0  0  0  0  0  0  0  0
  -68.6811   -1.5038  -68.4745 C   0  0  0  0  0  0  0  0  0  0  0  0
  -69.6093   -0.8068  -68.6871 O   0  0  0  0  0  0  0  0  0  0  0  0
  -67.6979   -1.7870  -69.5389 N   0  0  0  0  0  0  0  0  0  0  0  0
  -68.1107   -4.1356  -70.0003 C   0  0  2  0  0  0  0  0  0  0  0  0
  -67.9790   -4.5661  -71.5949 C   0  0  0  0  0  0  0  0  0  0  0  0
  -70.1708   -4.2036  -70.9863 C   0  0  0  0  0  0  0  0  0  0  0  0
  -69.2985   -3.6164  -69.8481 O   0  0  0  0  0  0  0  0  0  0  0  0
  1 11  1  6
 13  2  1  6
  2 14  1  1
  3  4  1  6
  4  5  1  0
  4  8  1  0
  5  6  2  0
  6  7  1  0
  7  8  2  0
  7  9  1  0
  9 10  2  0
  9 11  1  0
 12  1  1  0
 12 13  1  0
 12 15  1  6
 14 15  1  1
M  END
$$$$
