
     RDKit          3D

 15 16  0  0  0  0  0  0  0  0999 V2000
 -134.1788  295.4855  131.1980 C   0  0  0  0  0  0  0  0  0  0  0  0
 -132.6149  293.8586  128.3791 C   0  0  0  0  0  0  0  0  0  0  0  0
 -135.8660  288.8378  133.8161 C   0  0  0  0  0  0  0  0  0  0  0  0
 -135.7694  290.2795  133.5382 N   0  0  0  0  0  0  0  0  0  0  0  0
 -135.9514  291.2382  134.4358 C   0  0  0  0  0  0  0  0  0  0  0  0
 -135.7723  292.4129  133.8009 C   0  0  0  0  0  0  0  0  0  0  0  0
 -135.4681  292.1120  132.4655 C   0  0  0  0  0  0  0  0  0  0  0  0
 -135.4663  290.8264  132.3369 N   0  0  0  0  0  0  0  0  0  0  0  0
 -135.1682  293.1159  131.3262 C   0  0  0  0  0  0  0  0  0  0  0  0
 -134.7982  292.6849  130.2915 O   0  0  0  0  0  0  0  0  0  0  0  0
 -135.3058  294.5723  131.5247 N   0  0  0  0  0  0  0  0  0  0  0  0
 -133.0863  294.6943  130.5458 C   0  0  2  0  0  0  0  0  0  0  0  0
 -133.0916  294.9355  128.9064 C   0  0  0  0  0  0  0  0  0  0  0  0
 -132.8154  292.7120  129.4420 C   0  0  0  0  0  0  0  0  0  0  0  0
 -133.2848  293.4189  130.7387 O   0  0  0  0  0  0  0  0  0  0  0  0
  1 11  1  6
 13  2  1  6
  2 14  1  1
  3  4  1  6
  4  5  1  0
  4  8  1  0
  5  6  2  0
  6  7  1  0
  7  8  2  0
  7  9  1  0
  9 10  2  0
  9 11  1  0
 12  1  1  0
 12 13  1  0
 12 15  1  6
 14 15  1  1
M  END
$$$$
