
     RDKit          3D

 15 16  0  0  0  0  0  0  0  0999 V2000
  -26.1194   15.8667    9.8506 C   0  0  0  0  0  0  0  0  0  0  0  0
  -27.8194   18.1107    7.5895 C   0  0  0  0  0  0  0  0  0  0  0  0
  -25.3376   12.7467   15.4188 C   0  0  0  0  0  0  0  0  0  0  0  0
  -26.0977   13.8718   14.8520 N   0  0  0  0  0  0  0  0  0  0  0  0
  -26.6847   14.8245   15.5632 C   0  0  0  0  0  0  0  0  0  0  0  0
  -27.2671   15.6679   14.6887 C   0  0  0  0  0  0  0  0  0  0  0  0
  -26.9974   15.1735   13.4046 C   0  0  0  0  0  0  0  0  0  0  0  0
  -26.2894   14.1003   13.5311 N   0  0  0  0  0  0  0  0  0  0  0  0
  -27.4411   15.7872   12.0546 C   0  0  0  0  0  0  0  0  0  0  0  0
  -28.1173   16.7540   12.0814 O   0  0  0  0  0  0  0  0  0  0  0  0
  -27.0635   15.1730   10.7662 N   0  0  0  0  0  0  0  0  0  0  0  0
  -26.7018   17.1927    9.4664 C   0  0  2  0  0  0  0  0  0  0  0  0
  -27.8234   17.0089    8.2607 C   0  0  0  0  0  0  0  0  0  0  0  0
  -26.4275   18.7976    7.8633 C   0  0  0  0  0  0  0  0  0  0  0  0
  -25.7655   17.9695    8.9935 O   0  0  0  0  0  0  0  0  0  0  0  0
  1 11  1  6
 13  2  1  6
  2 14  1  1
  3  4  1  6
  4  5  1  0
  4  8  1  0
  5  6  2  0
  6  7  1  0
  7  8  2  0
  7  9  1  0
  9 10  2  0
  9 11  1  0
 12  1  1  0
 12 13  1  0
 12 15  1  6
 14 15  1  1
M  END
$$$$
