
     RDKit          3D

 15 16  0  0  0  0  0  0  0  0999 V2000
   84.1891   13.9256  -52.1345 C   0  0  0  0  0  0  0  0  0  0  0  0
   86.7598   15.8848  -53.7440 C   0  0  0  0  0  0  0  0  0  0  0  0
   87.7329   15.4496  -46.3097 C   0  0  0  0  0  0  0  0  0  0  0  0
   87.1644   15.3155  -47.6601 N   0  0  0  0  0  0  0  0  0  0  0  0
   86.7435   16.3255  -48.4089 C   0  0  0  0  0  0  0  0  0  0  0  0
   86.3032   15.8003  -49.5689 C   0  0  0  0  0  0  0  0  0  0  0  0
   86.4837   14.4124  -49.4822 C   0  0  0  0  0  0  0  0  0  0  0  0
   87.0075   14.1496  -48.3309 N   0  0  0  0  0  0  0  0  0  0  0  0
   86.1409   13.3563  -50.5607 C   0  0  0  0  0  0  0  0  0  0  0  0
   87.0296   12.7447  -51.0390 O   0  0  0  0  0  0  0  0  0  0  0  0
   84.7519   13.1336  -51.0090 N   0  0  0  0  0  0  0  0  0  0  0  0
   85.0120   15.1646  -52.3155 C   0  0  2  0  0  0  0  0  0  0  0  0
   85.6612   15.2152  -53.8391 C   0  0  0  0  0  0  0  0  0  0  0  0
   87.2033   15.8069  -52.2335 C   0  0  0  0  0  0  0  0  0  0  0  0
   86.0146   15.1586  -51.4798 O   0  0  0  0  0  0  0  0  0  0  0  0
  1 11  1  6
 13  2  1  6
  2 14  1  1
  3  4  1  6
  4  5  1  0
  4  8  1  0
  5  6  2  0
  6  7  1  0
  7  8  2  0
  7  9  1  0
  9 10  2  0
  9 11  1  0
 12  1  1  0
 12 13  1  0
 12 15  1  1
 14 15  1  1
M  END
$$$$
