
     RDKit          3D

 15 16  0  0  0  0  0  0  0  0999 V2000
 -119.2088  -60.5294  -88.4048 C   0  0  0  0  0  0  0  0  0  0  0  0
 -116.3706  -62.4457  -87.2603 C   0  0  0  0  0  0  0  0  0  0  0  0
 -124.4981  -57.0739  -88.3520 C   0  0  0  0  0  0  0  0  0  0  0  0
 -123.4089  -58.0614  -88.4108 N   0  0  0  0  0  0  0  0  0  0  0  0
 -122.8817  -58.6716  -87.3584 C   0  0  0  0  0  0  0  0  0  0  0  0
 -121.9245  -59.4995  -87.8207 C   0  0  0  0  0  0  0  0  0  0  0  0
 -121.9028  -59.3586  -89.2156 C   0  0  0  0  0  0  0  0  0  0  0  0
 -122.8068  -58.4958  -89.5433 N   0  0  0  0  0  0  0  0  0  0  0  0
 -120.9829  -60.1000  -90.2156 C   0  0  0  0  0  0  0  0  0  0  0  0
 -121.3190  -60.1488  -91.3459 O   0  0  0  0  0  0  0  0  0  0  0  0
 -119.7364  -60.7578  -89.7760 N   0  0  0  0  0  0  0  0  0  0  0  0
 -118.5471  -61.7847  -87.9239 C   0  0  2  0  0  0  0  0  0  0  0  0
 -117.1510  -61.4302  -87.1049 C   0  0  0  0  0  0  0  0  0  0  0  0
 -116.8659  -63.1983  -88.5537 C   0  0  0  0  0  0  0  0  0  0  0  0
 -118.2071  -62.5265  -88.9427 O   0  0  0  0  0  0  0  0  0  0  0  0
  1 11  1  6
 13  2  1  6
  2 14  1  1
  3  4  1  6
  4  5  1  0
  4  8  1  0
  5  6  2  0
  6  7  1  0
  7  8  2  0
  7  9  1  0
  9 10  2  0
  9 11  1  0
 12  1  1  0
 12 13  1  0
 12 15  1  6
 14 15  1  1
M  END
$$$$
