
     RDKit          3D

 15 16  0  0  0  0  0  0  0  0999 V2000
   -6.7978   13.4500  329.5274 C   0  0  0  0  0  0  0  0  0  0  0  0
   -3.6982   15.2071  328.9423 C   0  0  0  0  0  0  0  0  0  0  0  0
   -5.9069   13.6410  324.6642 C   0  0  0  0  0  0  0  0  0  0  0  0
   -7.1553   13.8159  325.4230 N   0  0  0  0  0  0  0  0  0  0  0  0
   -8.3686   13.8467  324.8892 C   0  0  0  0  0  0  0  0  0  0  0  0
   -9.2412   14.0142  325.9021 C   0  0  0  0  0  0  0  0  0  0  0  0
   -8.4874   14.0804  327.0826 C   0  0  0  0  0  0  0  0  0  0  0  0
   -7.2411   13.9521  326.7677 N   0  0  0  0  0  0  0  0  0  0  0  0
   -9.0222   14.2600  328.5240 C   0  0  0  0  0  0  0  0  0  0  0  0
  -10.1111   14.6940  328.6606 O   0  0  0  0  0  0  0  0  0  0  0  0
   -8.1935   13.9324  329.7012 N   0  0  0  0  0  0  0  0  0  0  0  0
   -5.9748   14.5504  328.9300 C   0  0  2  0  0  0  0  0  0  0  0  0
   -4.3778   14.1132  328.8644 C   0  0  0  0  0  0  0  0  0  0  0  0
   -4.6417   16.2745  329.6167 C   0  0  0  0  0  0  0  0  0  0  0  0
   -6.0424   15.6149  329.6823 O   0  0  0  0  0  0  0  0  0  0  0  0
  1 11  1  6
 13  2  1  6
  2 14  1  1
  3  4  1  6
  4  5  1  0
  4  8  1  0
  5  6  2  0
  6  7  1  0
  7  8  2  0
  7  9  1  0
  9 10  2  0
  9 11  1  0
 12  1  1  0
 12 13  1  0
 12 15  1  1
 14 15  1  1
M  END
$$$$
