
     RDKit          3D

 15 16  0  0  0  0  0  0  0  0999 V2000
  -92.2779   28.4785  -30.9610 C   0  0  0  0  0  0  0  0  0  0  0  0
  -92.6049   29.1771  -34.4884 C   0  0  0  0  0  0  0  0  0  0  0  0
  -88.5452   31.2031  -34.5653 C   0  0  0  0  0  0  0  0  0  0  0  0
  -88.5562   30.6541  -33.2003 N   0  0  0  0  0  0  0  0  0  0  0  0
  -87.4916   30.1874  -32.5626 C   0  0  0  0  0  0  0  0  0  0  0  0
  -87.9054   29.7852  -31.3451 C   0  0  0  0  0  0  0  0  0  0  0  0
  -89.2832   30.0375  -31.2793 C   0  0  0  0  0  0  0  0  0  0  0  0
  -89.6462   30.5643  -32.4016 N   0  0  0  0  0  0  0  0  0  0  0  0
  -90.2281   29.7598  -30.0851 C   0  0  0  0  0  0  0  0  0  0  0  0
  -90.2126   30.5160  -29.1792 O   0  0  0  0  0  0  0  0  0  0  0  0
  -91.1037   28.5714  -30.0536 N   0  0  0  0  0  0  0  0  0  0  0  0
  -91.7953   28.4622  -32.3794 C   0  0  2  0  0  0  0  0  0  0  0  0
  -92.5802   29.6144  -33.2749 C   0  0  0  0  0  0  0  0  0  0  0  0
  -92.4243   27.6135  -34.4055 C   0  0  0  0  0  0  0  0  0  0  0  0
  -92.0673   27.3097  -32.9285 O   0  0  0  0  0  0  0  0  0  0  0  0
  1 11  1  6
 13  2  1  6
  2 14  1  1
  3  4  1  6
  4  5  1  0
  4  8  1  0
  5  6  2  0
  6  7  1  0
  7  8  2  0
  7  9  1  0
  9 10  2  0
  9 11  1  0
 12  1  1  0
 12 13  1  0
 12 15  1  6
 14 15  1  1
M  END
$$$$
