
     RDKit          3D

 15 16  0  0  0  0  0  0  0  0999 V2000
 -471.8140 -449.5115 -398.8711 C   0  0  0  0  0  0  0  0  0  0  0  0
 -472.7007 -448.3780 -395.5592 C   0  0  0  0  0  0  0  0  0  0  0  0
 -474.5978 -453.0071 -394.9722 C   0  0  0  0  0  0  0  0  0  0  0  0
 -474.1293 -453.0773 -396.3654 N   0  0  0  0  0  0  0  0  0  0  0  0
 -474.6576 -453.8500 -397.3041 C   0  0  0  0  0  0  0  0  0  0  0  0
 -473.9621 -453.6266 -398.4366 C   0  0  0  0  0  0  0  0  0  0  0  0
 -472.9828 -452.6707 -398.1313 C   0  0  0  0  0  0  0  0  0  0  0  0
 -473.1095 -452.3541 -396.8853 N   0  0  0  0  0  0  0  0  0  0  0  0
 -471.9308 -452.0701 -399.0949 C   0  0  0  0  0  0  0  0  0  0  0  0
 -470.9681 -452.7099 -399.3324 O   0  0  0  0  0  0  0  0  0  0  0  0
 -472.0997 -450.7253 -399.6807 N   0  0  0  0  0  0  0  0  0  0  0  0
 -472.6036 -449.5793 -397.5995 C   0  0  2  0  0  0  0  0  0  0  0  0
 -472.5740 -448.1188 -396.8168 C   0  0  0  0  0  0  0  0  0  0  0  0
 -472.2474 -449.8745 -395.3616 C   0  0  0  0  0  0  0  0  0  0  0  0
 -472.0675 -450.4503 -396.7891 O   0  0  0  0  0  0  0  0  0  0  0  0
  1 11  1  6
 13  2  1  6
  2 14  1  1
  3  4  1  6
  4  5  1  0
  4  8  1  0
  5  6  2  0
  6  7  1  0
  7  8  2  0
  7  9  1  0
  9 10  2  0
  9 11  1  0
 12  1  1  0
 12 13  1  0
 12 15  1  1
 14 15  1  1
M  END
$$$$
