
     RDKit          3D

 15 16  0  0  0  0  0  0  0  0999 V2000
  191.3194  -65.8198  -10.6918 C   0  0  0  0  0  0  0  0  0  0  0  0
  189.8620  -63.5588  -13.1006 C   0  0  0  0  0  0  0  0  0  0  0  0
  191.2762  -59.8187   -8.6581 C   0  0  0  0  0  0  0  0  0  0  0  0
  191.7336  -61.0939   -9.2323 N   0  0  0  0  0  0  0  0  0  0  0  0
  191.9750  -61.3022  -10.5193 C   0  0  0  0  0  0  0  0  0  0  0  0
  192.3786  -62.5817  -10.6431 C   0  0  0  0  0  0  0  0  0  0  0  0
  192.3710  -63.1378   -9.3558 C   0  0  0  0  0  0  0  0  0  0  0  0
  191.9872  -62.2228   -8.5286 N   0  0  0  0  0  0  0  0  0  0  0  0
  192.7612  -64.5823   -8.9595 C   0  0  0  0  0  0  0  0  0  0  0  0
  193.2494  -64.7528   -7.8987 O   0  0  0  0  0  0  0  0  0  0  0  0
  192.5632  -65.7165   -9.8838 N   0  0  0  0  0  0  0  0  0  0  0  0
  190.9573  -64.4581  -11.2016 C   0  0  2  0  0  0  0  0  0  0  0  0
  189.7169  -64.5566  -12.2958 C   0  0  0  0  0  0  0  0  0  0  0  0
  191.3752  -63.1265  -13.0109 C   0  0  0  0  0  0  0  0  0  0  0  0
  191.9734  -63.9344  -11.8317 O   0  0  0  0  0  0  0  0  0  0  0  0
  1 11  1  6
 13  2  1  6
  2 14  1  1
  3  4  1  6
  4  5  1  0
  4  8  1  0
  5  6  2  0
  6  7  1  0
  7  8  2  0
  7  9  1  0
  9 10  2  0
  9 11  1  0
 12  1  1  0
 12 13  1  0
 12 15  1  6
 14 15  1  1
M  END
$$$$
