
     RDKit          3D

 15 16  0  0  0  0  0  0  0  0999 V2000
  -87.2616   24.8062   78.4707 C   0  0  0  0  0  0  0  0  0  0  0  0
  -86.1570   27.4433   76.2655 C   0  0  0  0  0  0  0  0  0  0  0  0
  -88.9368   18.2597   79.6013 C   0  0  0  0  0  0  0  0  0  0  0  0
  -88.1195   19.4261   79.2322 N   0  0  0  0  0  0  0  0  0  0  0  0
  -86.9108   19.6866   79.7109 C   0  0  0  0  0  0  0  0  0  0  0  0
  -86.4938   20.8286   79.1301 C   0  0  0  0  0  0  0  0  0  0  0  0
  -87.5186   21.2452   78.2685 C   0  0  0  0  0  0  0  0  0  0  0  0
  -88.4780   20.3834   78.3440 N   0  0  0  0  0  0  0  0  0  0  0  0
  -87.5257   22.5008   77.3633 C   0  0  0  0  0  0  0  0  0  0  0  0
  -87.0220   22.4192   76.2992 O   0  0  0  0  0  0  0  0  0  0  0  0
  -88.1132   23.7768   77.8179 N   0  0  0  0  0  0  0  0  0  0  0  0
  -87.4340   26.1077   77.7487 C   0  0  2  0  0  0  0  0  0  0  0  0
  -86.4117   26.1918   76.4474 C   0  0  0  0  0  0  0  0  0  0  0  0
  -86.4422   28.1633   77.6383 C   0  0  0  0  0  0  0  0  0  0  0  0
  -87.1201   27.0989   78.5378 O   0  0  0  0  0  0  0  0  0  0  0  0
  1 11  1  6
 13  2  1  6
  2 14  1  1
  3  4  1  6
  4  5  1  0
  4  8  1  0
  5  6  2  0
  6  7  1  0
  7  8  2  0
  7  9  1  0
  9 10  2  0
  9 11  1  0
 12  1  1  0
 12 13  1  0
 12 15  1  1
 14 15  1  1
M  END
$$$$
