
     RDKit          3D

 15 16  0  0  0  0  0  0  0  0999 V2000
 -132.0248 -139.5023  -12.9485 C   0  0  0  0  0  0  0  0  0  0  0  0
 -132.7005 -136.3929  -14.6554 C   0  0  0  0  0  0  0  0  0  0  0  0
 -136.2451 -143.1599  -15.4764 C   0  0  0  0  0  0  0  0  0  0  0  0
 -135.6928 -141.9096  -14.9318 N   0  0  0  0  0  0  0  0  0  0  0  0
 -135.4390 -140.8199  -15.6433 C   0  0  0  0  0  0  0  0  0  0  0  0
 -134.9529 -139.8965  -14.7912 C   0  0  0  0  0  0  0  0  0  0  0  0
 -134.9286 -140.4878  -13.5200 C   0  0  0  0  0  0  0  0  0  0  0  0
 -135.3835 -141.6918  -13.6315 N   0  0  0  0  0  0  0  0  0  0  0  0
 -134.4602 -139.8376  -12.1957 C   0  0  0  0  0  0  0  0  0  0  0  0
 -135.1689 -139.9231  -11.2558 O   0  0  0  0  0  0  0  0  0  0  0  0
 -133.1830 -139.1026  -12.1061 N   0  0  0  0  0  0  0  0  0  0  0  0
 -131.6541 -138.3562  -13.8396 C   0  0  2  0  0  0  0  0  0  0  0  0
 -132.6328 -137.0513  -13.5479 C   0  0  0  0  0  0  0  0  0  0  0  0
 -132.3352 -137.4087  -15.8041 C   0  0  0  0  0  0  0  0  0  0  0  0
 -131.8333 -138.6886  -15.0890 O   0  0  0  0  0  0  0  0  0  0  0  0
  1 11  1  6
 13  2  1  6
  2 14  1  1
  3  4  1  6
  4  5  1  0
  4  8  1  0
  5  6  2  0
  6  7  1  0
  7  8  2  0
  7  9  1  0
  9 10  2  0
  9 11  1  0
 12  1  1  0
 12 13  1  0
 12 15  1  6
 14 15  1  1
M  END
$$$$
