
     RDKit          3D

 15 16  0  0  0  0  0  0  0  0999 V2000
  -75.3212  -89.5746   -8.2573 C   0  0  0  0  0  0  0  0  0  0  0  0
  -71.8639  -89.3681   -7.2360 C   0  0  0  0  0  0  0  0  0  0  0  0
  -73.5831  -87.5524   -3.8410 C   0  0  0  0  0  0  0  0  0  0  0  0
  -74.6180  -88.5488   -4.1589 N   0  0  0  0  0  0  0  0  0  0  0  0
  -75.0791  -89.4591   -3.3123 C   0  0  0  0  0  0  0  0  0  0  0  0
  -76.0138  -90.1725   -3.9702 C   0  0  0  0  0  0  0  0  0  0  0  0
  -76.0957  -89.6406   -5.2650 C   0  0  0  0  0  0  0  0  0  0  0  0
  -75.2535  -88.6646   -5.3492 N   0  0  0  0  0  0  0  0  0  0  0  0
  -77.0280  -90.1064   -6.4094 C   0  0  0  0  0  0  0  0  0  0  0  0
  -78.1587  -90.3224   -6.1494 O   0  0  0  0  0  0  0  0  0  0  0  0
  -76.5234  -90.3090   -7.7821 N   0  0  0  0  0  0  0  0  0  0  0  0
  -74.1390  -89.9980   -7.4396 C   0  0  2  0  0  0  0  0  0  0  0  0
  -73.0074  -88.7891   -7.3821 C   0  0  0  0  0  0  0  0  0  0  0  0
  -72.0407  -90.8469   -7.7522 C   0  0  0  0  0  0  0  0  0  0  0  0
  -73.5606  -91.0281   -7.9945 O   0  0  0  0  0  0  0  0  0  0  0  0
  1 11  1  6
 13  2  1  6
  2 14  1  1
  3  4  1  6
  4  5  1  0
  4  8  1  0
  5  6  2  0
  6  7  1  0
  7  8  2  0
  7  9  1  0
  9 10  2  0
  9 11  1  0
 12  1  1  0
 12 13  1  0
 12 15  1  6
 14 15  1  1
M  END
$$$$
