
     RDKit          3D

 15 16  0  0  0  0  0  0  0  0999 V2000
  -30.8138  -42.1562  129.8035 C   0  0  0  0  0  0  0  0  0  0  0  0
  -33.4213  -40.6242  127.8308 C   0  0  0  0  0  0  0  0  0  0  0  0
  -29.4614  -49.2245  130.0934 C   0  0  0  0  0  0  0  0  0  0  0  0
  -30.0508  -47.8767  130.0652 N   0  0  0  0  0  0  0  0  0  0  0  0
  -31.0476  -47.4691  130.8386 C   0  0  0  0  0  0  0  0  0  0  0  0
  -31.2937  -46.1832  130.5203 C   0  0  0  0  0  0  0  0  0  0  0  0
  -30.3864  -45.8326  129.5103 C   0  0  0  0  0  0  0  0  0  0  0  0
  -29.6490  -46.8637  129.2612 N   0  0  0  0  0  0  0  0  0  0  0  0
  -30.2550  -44.4598  128.8074 C   0  0  0  0  0  0  0  0  0  0  0  0
  -29.3379  -44.2938  128.0834 O   0  0  0  0  0  0  0  0  0  0  0  0
  -31.2229  -43.3719  129.0515 N   0  0  0  0  0  0  0  0  0  0  0  0
  -31.5803  -40.9804  129.2792 C   0  0  2  0  0  0  0  0  0  0  0  0
  -33.0843  -41.4480  128.7647 C   0  0  0  0  0  0  0  0  0  0  0  0
  -32.0830  -40.0035  127.2758 C   0  0  0  0  0  0  0  0  0  0  0  0
  -30.9681  -40.4768  128.2422 O   0  0  0  0  0  0  0  0  0  0  0  0
  1 11  1  6
 13  2  1  6
  2 14  1  1
  3  4  1  6
  4  5  1  0
  4  8  1  0
  5  6  2  0
  6  7  1  0
  7  8  2  0
  7  9  1  0
  9 10  2  0
  9 11  1  0
 12  1  1  0
 12 13  1  0
 12 15  1  6
 14 15  1  1
M  END
$$$$
