
     RDKit          3D

 15 16  0  0  0  0  0  0  0  0999 V2000
  -30.8098   23.5764 -175.7690 C   0  0  0  0  0  0  0  0  0  0  0  0
  -33.4525   23.5262 -173.3091 C   0  0  0  0  0  0  0  0  0  0  0  0
  -24.4816   23.9317 -173.2713 C   0  0  0  0  0  0  0  0  0  0  0  0
  -25.3483   23.8900 -174.4594 N   0  0  0  0  0  0  0  0  0  0  0  0
  -25.0113   23.3551 -175.6250 C   0  0  0  0  0  0  0  0  0  0  0  0
  -26.0665   23.5068 -176.4489 C   0  0  0  0  0  0  0  0  0  0  0  0
  -27.0653   24.1626 -175.7151 C   0  0  0  0  0  0  0  0  0  0  0  0
  -26.6113   24.3745 -174.5244 N   0  0  0  0  0  0  0  0  0  0  0  0
  -28.4767   24.5633 -176.2085 C   0  0  0  0  0  0  0  0  0  0  0  0
  -28.5768   25.0111 -177.2959 O   0  0  0  0  0  0  0  0  0  0  0  0
  -29.6651   24.4245 -175.3435 N   0  0  0  0  0  0  0  0  0  0  0  0
  -31.4940   23.0373 -174.5500 C   0  0  2  0  0  0  0  0  0  0  0  0
  -33.0966   23.4584 -174.5473 C   0  0  0  0  0  0  0  0  0  0  0  0
  -32.1338   23.7483 -172.4749 C   0  0  0  0  0  0  0  0  0  0  0  0
  -30.9665   23.5595 -173.4763 O   0  0  0  0  0  0  0  0  0  0  0  0
  1 11  1  6
 13  2  1  6
  2 14  1  1
  3  4  1  6
  4  5  1  0
  4  8  1  0
  5  6  2  0
  6  7  1  0
  7  8  2  0
  7  9  1  0
  9 10  2  0
  9 11  1  0
 12  1  1  0
 12 13  1  0
 12 15  1  1
 14 15  1  1
M  END
$$$$
