
     RDKit          3D

 15 16  0  0  0  0  0  0  0  0999 V2000
  -38.6453    9.5065   10.3345 C   0  0  0  0  0  0  0  0  0  0  0  0
  -41.8026    9.1264   12.0445 C   0  0  0  0  0  0  0  0  0  0  0  0
  -41.0002    4.9879   10.4260 C   0  0  0  0  0  0  0  0  0  0  0  0
  -41.3137    6.2573    9.7514 N   0  0  0  0  0  0  0  0  0  0  0  0
  -42.5111    6.5972    9.2945 C   0  0  0  0  0  0  0  0  0  0  0  0
  -42.3933    7.8259    8.7545 C   0  0  0  0  0  0  0  0  0  0  0  0
  -41.0552    8.2139    8.9124 C   0  0  0  0  0  0  0  0  0  0  0  0
  -40.4319    7.2584    9.5187 N   0  0  0  0  0  0  0  0  0  0  0  0
  -40.4098    9.5477    8.4649 C   0  0  0  0  0  0  0  0  0  0  0  0
  -40.9699   10.1866    7.6458 O   0  0  0  0  0  0  0  0  0  0  0  0
  -39.1173   10.0026    9.0147 N   0  0  0  0  0  0  0  0  0  0  0  0
  -39.6543    9.8727   11.3799 C   0  0  2  0  0  0  0  0  0  0  0  0
  -40.6850    8.6067   11.6633 C   0  0  0  0  0  0  0  0  0  0  0  0
  -41.8134   10.6091   11.5100 C   0  0  0  0  0  0  0  0  0  0  0  0
  -40.3876   10.8678   10.9609 O   0  0  0  0  0  0  0  0  0  0  0  0
  1 11  1  6
 13  2  1  6
  2 14  1  1
  3  4  1  6
  4  5  1  0
  4  8  1  0
  5  6  2  0
  6  7  1  0
  7  8  2  0
  7  9  1  0
  9 10  2  0
  9 11  1  0
 12  1  1  0
 12 13  1  0
 12 15  1  6
 14 15  1  1
M  END
$$$$
