
     RDKit          3D

 15 16  0  0  0  0  0  0  0  0999 V2000
   29.9655   14.8467   48.6647 C   0  0  0  0  0  0  0  0  0  0  0  0
   31.3417   12.2755   50.7938 C   0  0  0  0  0  0  0  0  0  0  0  0
   27.3038    9.5344   49.3976 C   0  0  0  0  0  0  0  0  0  0  0  0
   27.5228   10.9695   49.6371 N   0  0  0  0  0  0  0  0  0  0  0  0
   28.0314   11.4833   50.7485 C   0  0  0  0  0  0  0  0  0  0  0  0
   28.0791   12.8192   50.5800 C   0  0  0  0  0  0  0  0  0  0  0  0
   27.5723   13.0868   49.3003 C   0  0  0  0  0  0  0  0  0  0  0  0
   27.2527   11.9604   48.7544 N   0  0  0  0  0  0  0  0  0  0  0  0
   27.4222   14.4717   48.6253 C   0  0  0  0  0  0  0  0  0  0  0  0
   26.3377   14.8262   48.3238 O   0  0  0  0  0  0  0  0  0  0  0  0
   28.5953   15.3191   48.3330 N   0  0  0  0  0  0  0  0  0  0  0  0
   29.8625   13.6271   49.5290 C   0  0  2  0  0  0  0  0  0  0  0  0
   31.1586   13.5303   50.5567 C   0  0  0  0  0  0  0  0  0  0  0  0
   30.6718   11.4914   49.6018 C   0  0  0  0  0  0  0  0  0  0  0  0
   29.8898   12.5531   48.7877 O   0  0  0  0  0  0  0  0  0  0  0  0
  1 11  1  6
 13  2  1  6
  2 14  1  1
  3  4  1  6
  4  5  1  0
  4  8  1  0
  5  6  2  0
  6  7  1  0
  7  8  2  0
  7  9  1  0
  9 10  2  0
  9 11  1  0
 12  1  1  0
 12 13  1  0
 12 15  1  6
 14 15  1  1
M  END
$$$$
