
     RDKit          3D

 15 16  0  0  0  0  0  0  0  0999 V2000
  -46.8753  -21.9923  -28.3031 C   0  0  0  0  0  0  0  0  0  0  0  0
  -48.3036  -19.3575  -30.3169 C   0  0  0  0  0  0  0  0  0  0  0  0
  -43.6359  -25.1359  -33.0157 C   0  0  0  0  0  0  0  0  0  0  0  0
  -44.4633  -24.4194  -32.0324 N   0  0  0  0  0  0  0  0  0  0  0  0
  -44.4164  -23.1130  -31.8109 C   0  0  0  0  0  0  0  0  0  0  0  0
  -45.3222  -22.8426  -30.8508 C   0  0  0  0  0  0  0  0  0  0  0  0
  -45.9241  -24.0606  -30.5039 C   0  0  0  0  0  0  0  0  0  0  0  0
  -45.3957  -24.9880  -31.2317 N   0  0  0  0  0  0  0  0  0  0  0  0
  -47.0364  -24.2871  -29.4515 C   0  0  0  0  0  0  0  0  0  0  0  0
  -47.3769  -25.3962  -29.2356 O   0  0  0  0  0  0  0  0  0  0  0  0
  -47.6820  -23.1565  -28.7553 N   0  0  0  0  0  0  0  0  0  0  0  0
  -47.6763  -20.7412  -28.4987 C   0  0  2  0  0  0  0  0  0  0  0  0
  -48.1908  -20.6185  -30.0689 C   0  0  0  0  0  0  0  0  0  0  0  0
  -47.3868  -18.6115  -29.2742 C   0  0  0  0  0  0  0  0  0  0  0  0
  -46.9316  -19.6952  -28.2644 O   0  0  0  0  0  0  0  0  0  0  0  0
  1 11  1  6
 13  2  1  6
  2 14  1  1
  3  4  1  6
  4  5  1  0
  4  8  1  0
  5  6  2  0
  6  7  1  0
  7  8  2  0
  7  9  1  0
  9 10  2  0
  9 11  1  0
 12  1  1  0
 12 13  1  0
 12 15  1  6
 14 15  1  1
M  END
$$$$
