
     RDKit          3D

 15 16  0  0  0  0  0  0  0  0999 V2000
 -125.0870  -61.3056 -191.8429 C   0  0  0  0  0  0  0  0  0  0  0  0
 -122.9477  -62.6623 -194.4160 C   0  0  0  0  0  0  0  0  0  0  0  0
 -124.7046  -54.3103 -192.4187 C   0  0  0  0  0  0  0  0  0  0  0  0
 -125.4339  -55.5877 -192.4481 N   0  0  0  0  0  0  0  0  0  0  0  0
 -126.6979  -55.7472 -192.0805 C   0  0  0  0  0  0  0  0  0  0  0  0
 -126.9994  -57.0485 -192.2581 C   0  0  0  0  0  0  0  0  0  0  0  0
 -125.8457  -57.6694 -192.7575 C   0  0  0  0  0  0  0  0  0  0  0  0
 -124.9248  -56.7702 -192.8681 N   0  0  0  0  0  0  0  0  0  0  0  0
 -125.6758  -59.1613 -193.1335 C   0  0  0  0  0  0  0  0  0  0  0  0
 -126.3889  -59.6086 -193.9608 O   0  0  0  0  0  0  0  0  0  0  0  0
 -124.6775  -60.0176 -192.4628 N   0  0  0  0  0  0  0  0  0  0  0  0
 -124.4508  -62.4320 -192.5988 C   0  0  2  0  0  0  0  0  0  0  0  0
 -123.0815  -61.9131 -193.3743 C   0  0  0  0  0  0  0  0  0  0  0  0
 -124.3747  -63.2533 -194.7298 C   0  0  0  0  0  0  0  0  0  0  0  0
 -125.2653  -62.8635 -193.5229 O   0  0  0  0  0  0  0  0  0  0  0  0
  1 11  1  6
 13  2  1  6
  2 14  1  1
  3  4  1  6
  4  5  1  0
  4  8  1  0
  5  6  2  0
  6  7  1  0
  7  8  2  0
  7  9  1  0
  9 10  2  0
  9 11  1  0
 12  1  1  0
 12 13  1  0
 12 15  1  6
 14 15  1  1
M  END
$$$$
