
     RDKit          3D

 15 16  0  0  0  0  0  0  0  0999 V2000
  -35.4145  -33.0943   13.7677 C   0  0  0  0  0  0  0  0  0  0  0  0
  -31.8479  -32.6241   13.4583 C   0  0  0  0  0  0  0  0  0  0  0  0
  -33.2101  -36.3005   19.3682 C   0  0  0  0  0  0  0  0  0  0  0  0
  -33.0751  -35.9733   17.9401 N   0  0  0  0  0  0  0  0  0  0  0  0
  -31.9231  -35.7835   17.3116 C   0  0  0  0  0  0  0  0  0  0  0  0
  -32.2154  -35.5134   16.0244 C   0  0  0  0  0  0  0  0  0  0  0  0
  -33.6121  -35.5529   15.9069 C   0  0  0  0  0  0  0  0  0  0  0  0
  -34.1021  -35.8372   17.0679 N   0  0  0  0  0  0  0  0  0  0  0  0
  -34.4492  -35.3172   14.6264 C   0  0  0  0  0  0  0  0  0  0  0  0
  -34.1722  -35.9379   13.6616 O   0  0  0  0  0  0  0  0  0  0  0  0
  -35.5428  -34.3260   14.5906 N   0  0  0  0  0  0  0  0  0  0  0  0
  -34.1190  -32.4198   14.1021 C   0  0  2  0  0  0  0  0  0  0  0  0
  -33.0085  -32.6610   12.8962 C   0  0  0  0  0  0  0  0  0  0  0  0
  -32.0779  -32.9460   14.9840 C   0  0  0  0  0  0  0  0  0  0  0  0
  -33.6141  -32.9399   15.1875 O   0  0  0  0  0  0  0  0  0  0  0  0
  1 11  1  6
 13  2  1  6
  2 14  1  1
  3  4  1  6
  4  5  1  0
  4  8  1  0
  5  6  2  0
  6  7  1  0
  7  8  2  0
  7  9  1  0
  9 10  2  0
  9 11  1  0
 12  1  1  0
 12 13  1  0
 12 15  1  1
 14 15  1  1
M  END
$$$$
