
     RDKit          3D

 15 16  0  0  0  0  0  0  0  0999 V2000
 -188.4939   68.3209   61.7155 C   0  0  0  0  0  0  0  0  0  0  0  0
 -188.6374   65.6576   59.2817 C   0  0  0  0  0  0  0  0  0  0  0  0
 -186.6817   62.9852   63.7121 C   0  0  0  0  0  0  0  0  0  0  0  0
 -187.6678   63.9144   63.1386 N   0  0  0  0  0  0  0  0  0  0  0  0
 -188.1824   63.8163   61.9205 C   0  0  0  0  0  0  0  0  0  0  0  0
 -189.0449   64.8408   61.7728 C   0  0  0  0  0  0  0  0  0  0  0  0
 -189.0262   65.5655   62.9731 C   0  0  0  0  0  0  0  0  0  0  0  0
 -188.1977   64.9850   63.7765 N   0  0  0  0  0  0  0  0  0  0  0  0
 -189.8495   66.8312   63.3135 C   0  0  0  0  0  0  0  0  0  0  0  0
 -190.8498   66.6936   63.9245 O   0  0  0  0  0  0  0  0  0  0  0  0
 -189.4241   68.1723   62.8658 N   0  0  0  0  0  0  0  0  0  0  0  0
 -188.1409   66.9599   61.1977 C   0  0  2  0  0  0  0  0  0  0  0  0
 -188.3579   66.8866   59.5568 C   0  0  0  0  0  0  0  0  0  0  0  0
 -189.1843   65.0132   60.6122 C   0  0  0  0  0  0  0  0  0  0  0  0
 -188.9336   66.0652   61.7220 O   0  0  0  0  0  0  0  0  0  0  0  0
  1 11  1  6
 13  2  1  6
  2 14  1  1
  3  4  1  6
  4  5  1  0
  4  8  1  0
  5  6  2  0
  6  7  1  0
  7  8  2  0
  7  9  1  0
  9 10  2  0
  9 11  1  0
 12  1  1  0
 12 13  1  0
 12 15  1  1
 14 15  1  1
M  END
$$$$
