
     RDKit          3D

 15 16  0  0  0  0  0  0  0  0999 V2000
   77.3740    0.3012   35.5180 C   0  0  0  0  0  0  0  0  0  0  0  0
   79.6177   -0.7618   32.8961 C   0  0  0  0  0  0  0  0  0  0  0  0
   73.9595    4.3959   39.4313 C   0  0  0  0  0  0  0  0  0  0  0  0
   74.6615    3.5643   38.4411 N   0  0  0  0  0  0  0  0  0  0  0  0
   75.8458    3.8476   37.9167 C   0  0  0  0  0  0  0  0  0  0  0  0
   76.1491    2.8491   37.0644 C   0  0  0  0  0  0  0  0  0  0  0  0
   75.0812    1.9413   37.1037 C   0  0  0  0  0  0  0  0  0  0  0  0
   74.2066    2.3906   37.9416 N   0  0  0  0  0  0  0  0  0  0  0  0
   74.9485    0.6196   36.3090 C   0  0  0  0  0  0  0  0  0  0  0  0
   74.0633   -0.1088   36.5896 O   0  0  0  0  0  0  0  0  0  0  0  0
   75.9120    0.2546   35.2516 N   0  0  0  0  0  0  0  0  0  0  0  0
   78.0985    0.4854   34.2194 C   0  0  2  0  0  0  0  0  0  0  0  0
   78.5548   -0.9796   33.5941 C   0  0  0  0  0  0  0  0  0  0  0  0
   80.2443    0.5786   33.4396 C   0  0  0  0  0  0  0  0  0  0  0  0
   79.1936    1.1684   34.4141 O   0  0  0  0  0  0  0  0  0  0  0  0
  1 11  1  6
 13  2  1  6
  2 14  1  1
  3  4  1  6
  4  5  1  0
  4  8  1  0
  5  6  2  0
  6  7  1  0
  7  8  2  0
  7  9  1  0
  9 10  2  0
  9 11  1  0
 12  1  1  0
 12 13  1  0
 12 15  1  1
 14 15  1  1
M  END
$$$$
