
     RDKit          3D

 15 16  0  0  0  0  0  0  0  0999 V2000
  -34.8510   19.1395 -111.5740 C   0  0  0  0  0  0  0  0  0  0  0  0
  -35.8153   19.3668 -115.0463 C   0  0  0  0  0  0  0  0  0  0  0  0
  -28.4065   19.1973 -110.0430 C   0  0  0  0  0  0  0  0  0  0  0  0
  -29.6109   18.4924 -110.5094 N   0  0  0  0  0  0  0  0  0  0  0  0
  -29.9977   17.2950 -110.0916 C   0  0  0  0  0  0  0  0  0  0  0  0
  -31.1400   16.9999 -110.7421 C   0  0  0  0  0  0  0  0  0  0  0  0
  -31.4262   18.0892 -111.5775 C   0  0  0  0  0  0  0  0  0  0  0  0
  -30.4976   18.9722 -111.4135 N   0  0  0  0  0  0  0  0  0  0  0  0
  -32.6376   18.2446 -112.5284 C   0  0  0  0  0  0  0  0  0  0  0  0
  -32.4297   18.5848 -113.6391 O   0  0  0  0  0  0  0  0  0  0  0  0
  -34.0190   18.0087 -112.0637 N   0  0  0  0  0  0  0  0  0  0  0  0
  -35.7275   19.6168 -112.6917 C   0  0  2  0  0  0  0  0  0  0  0  0
  -35.5732   18.6311 -114.0147 C   0  0  0  0  0  0  0  0  0  0  0  0
  -35.5628   20.8582 -114.6030 C   0  0  0  0  0  0  0  0  0  0  0  0
  -35.3581   20.8109 -113.0676 O   0  0  0  0  0  0  0  0  0  0  0  0
  1 11  1  6
 13  2  1  6
  2 14  1  1
  3  4  1  6
  4  5  1  0
  4  8  1  0
  5  6  2  0
  6  7  1  0
  7  8  2  0
  7  9  1  0
  9 10  2  0
  9 11  1  0
 12  1  1  0
 12 13  1  0
 12 15  1  6
 14 15  1  1
M  END
$$$$
