
     RDKit          3D

 15 16  0  0  0  0  0  0  0  0999 V2000
  107.4600   33.0665  -10.5378 C   0  0  0  0  0  0  0  0  0  0  0  0
  105.5066   30.0365  -10.7400 C   0  0  0  0  0  0  0  0  0  0  0  0
  112.4072   28.9108   -9.5758 C   0  0  0  0  0  0  0  0  0  0  0  0
  111.8387   29.9237  -10.4789 N   0  0  0  0  0  0  0  0  0  0  0  0
  111.9370   29.9009  -11.8010 C   0  0  0  0  0  0  0  0  0  0  0  0
  111.2869   30.9865  -12.2638 C   0  0  0  0  0  0  0  0  0  0  0  0
  110.7856   31.6686  -11.1460 C   0  0  0  0  0  0  0  0  0  0  0  0
  111.1249   31.0067  -10.0898 N   0  0  0  0  0  0  0  0  0  0  0  0
  109.9572   32.9761  -11.1432 C   0  0  0  0  0  0  0  0  0  0  0  0
  110.2207   33.8004  -11.9456 O   0  0  0  0  0  0  0  0  0  0  0  0
  108.8886   33.2107  -10.1518 N   0  0  0  0  0  0  0  0  0  0  0  0
  106.9388   31.7708   -9.9950 C   0  0  2  0  0  0  0  0  0  0  0  0
  106.4403   30.7815  -11.2272 C   0  0  0  0  0  0  0  0  0  0  0  0
  104.9367   30.7964   -9.4822 C   0  0  0  0  0  0  0  0  0  0  0  0
  105.8943   31.9913   -9.2441 O   0  0  0  0  0  0  0  0  0  0  0  0
  1 11  1  6
 13  2  1  6
  2 14  1  1
  3  4  1  6
  4  5  1  0
  4  8  1  0
  5  6  2  0
  6  7  1  0
  7  8  2  0
  7  9  1  0
  9 10  2  0
  9 11  1  0
 12  1  1  0
 12 13  1  0
 12 15  1  1
 14 15  1  1
M  END
$$$$
