
     RDKit          3D

 15 16  0  0  0  0  0  0  0  0999 V2000
   41.7953 -119.3617  -43.6603 C   0  0  0  0  0  0  0  0  0  0  0  0
   41.2141 -119.8717  -40.1333 C   0  0  0  0  0  0  0  0  0  0  0  0
   36.6689 -114.4479  -45.8490 C   0  0  0  0  0  0  0  0  0  0  0  0
   37.7696 -115.4199  -45.9408 N   0  0  0  0  0  0  0  0  0  0  0  0
   38.0990 -116.0906  -47.0361 C   0  0  0  0  0  0  0  0  0  0  0  0
   39.1532 -116.8681  -46.7209 C   0  0  0  0  0  0  0  0  0  0  0  0
   39.4469 -116.6285  -45.3709 C   0  0  0  0  0  0  0  0  0  0  0  0
   38.6070 -115.7518  -44.9296 N   0  0  0  0  0  0  0  0  0  0  0  0
   40.5777 -117.2717  -44.5321 C   0  0  0  0  0  0  0  0  0  0  0  0
   41.1845 -116.5773  -43.7957 O   0  0  0  0  0  0  0  0  0  0  0  0
   40.9180 -118.7023  -44.6635 N   0  0  0  0  0  0  0  0  0  0  0  0
   41.3927 -118.9076  -42.2903 C   0  0  2  0  0  0  0  0  0  0  0  0
   42.0270 -119.9111  -41.1343 C   0  0  0  0  0  0  0  0  0  0  0  0
   39.8235 -119.3966  -40.7030 C   0  0  0  0  0  0  0  0  0  0  0  0
   40.0946 -118.9649  -42.1664 O   0  0  0  0  0  0  0  0  0  0  0  0
  1 11  1  6
 13  2  1  6
  2 14  1  1
  3  4  1  6
  4  5  1  0
  4  8  1  0
  5  6  2  0
  6  7  1  0
  7  8  2  0
  7  9  1  0
  9 10  2  0
  9 11  1  0
 12  1  1  0
 12 13  1  0
 12 15  1  6
 14 15  1  1
M  END
$$$$
