
     RDKit          3D

 15 16  0  0  0  0  0  0  0  0999 V2000
   26.8763   81.1248  108.3996 C   0  0  0  0  0  0  0  0  0  0  0  0
   24.3631   83.6410  109.0245 C   0  0  0  0  0  0  0  0  0  0  0  0
   22.8516   84.9314  107.6904 C   0  0  0  0  0  0  0  0  0  0  0  0
   24.2277   84.9271  108.2112 N   0  0  0  0  0  0  0  0  0  0  0  0
   24.6975   85.7729  109.1178 C   0  0  0  0  0  0  0  0  0  0  0  0
   25.9856   85.4431  109.3354 C   0  0  0  0  0  0  0  0  0  0  0  0
   26.2702   84.3458  108.5101 C   0  0  0  0  0  0  0  0  0  0  0  0
   25.1976   84.0529  107.8522 N   0  0  0  0  0  0  0  0  0  0  0  0
   27.6146   83.5876  108.3940 C   0  0  0  0  0  0  0  0  0  0  0  0
   28.5940   84.1385  108.7548 O   0  0  0  0  0  0  0  0  0  0  0  0
   27.6875   82.2287  107.8216 N   0  0  0  0  0  0  0  0  0  0  0  0
   25.4624   81.5939  108.5598 C   0  0  2  0  0  0  0  0  0  0  0  0
   25.3604   83.2299  108.3169 C   0  0  0  0  0  0  0  0  0  0  0  0
   24.1357   82.5607  110.1494 C   0  0  0  0  0  0  0  0  0  0  0  0
   25.0548   81.3691  109.7793 O   0  0  0  0  0  0  0  0  0  0  0  0
  1 11  1  6
 13  2  1  6
  2 14  1  1
  3  4  1  6
  4  5  1  0
  4  8  1  0
  5  6  2  0
  6  7  1  0
  7  8  2  0
  7  9  1  0
  9 10  2  0
  9 11  1  0
 12  1  1  0
 12 13  1  0
 12 15  1  1
 14 15  1  1
M  END
$$$$
