
     RDKit          3D

 15 16  0  0  0  0  0  0  0  0999 V2000
  132.7873  124.0326  -25.6435 C   0  0  0  0  0  0  0  0  0  0  0  0
  134.8848  123.2800  -22.8024 C   0  0  0  0  0  0  0  0  0  0  0  0
  133.0663  122.1637  -20.0105 C   0  0  0  0  0  0  0  0  0  0  0  0
  132.3695  122.8107  -21.1334 N   0  0  0  0  0  0  0  0  0  0  0  0
  131.2413  122.3752  -21.6771 C   0  0  0  0  0  0  0  0  0  0  0  0
  130.9216  123.2345  -22.6644 C   0  0  0  0  0  0  0  0  0  0  0  0
  131.9200  124.2188  -22.6870 C   0  0  0  0  0  0  0  0  0  0  0  0
  132.7715  123.9446  -21.7550 N   0  0  0  0  0  0  0  0  0  0  0  0
  132.0088  125.4382  -23.6363 C   0  0  0  0  0  0  0  0  0  0  0  0
  131.5083  126.4486  -23.2882 O   0  0  0  0  0  0  0  0  0  0  0  0
  132.6688  125.3444  -24.9536 N   0  0  0  0  0  0  0  0  0  0  0  0
  133.6510  123.1270  -24.8194 C   0  0  2  0  0  0  0  0  0  0  0  0
  133.7435  123.6727  -23.2577 C   0  0  0  0  0  0  0  0  0  0  0  0
  135.8024  123.0187  -24.0572 C   0  0  0  0  0  0  0  0  0  0  0  0
  134.8686  123.1247  -25.2894 O   0  0  0  0  0  0  0  0  0  0  0  0
  1 11  1  6
 13  2  1  6
  2 14  1  1
  3  4  1  6
  4  5  1  0
  4  8  1  0
  5  6  2  0
  6  7  1  0
  7  8  2  0
  7  9  1  0
  9 10  2  0
  9 11  1  0
 12  1  1  0
 12 13  1  0
 12 15  1  6
 14 15  1  1
M  END
$$$$
