
     RDKit          3D

 15 16  0  0  0  0  0  0  0  0999 V2000
  -87.0033    6.4290    3.5207 C   0  0  0  0  0  0  0  0  0  0  0  0
  -90.2790    7.2348    2.2326 C   0  0  0  0  0  0  0  0  0  0  0  0
  -84.9086    1.7152    5.4848 C   0  0  0  0  0  0  0  0  0  0  0  0
  -85.0305    3.1391    5.8348 N   0  0  0  0  0  0  0  0  0  0  0  0
  -84.0528    3.8834    6.3328 C   0  0  0  0  0  0  0  0  0  0  0  0
  -84.5513    5.1225    6.5106 C   0  0  0  0  0  0  0  0  0  0  0  0
  -85.8882    5.0881    6.0889 C   0  0  0  0  0  0  0  0  0  0  0  0
  -86.1474    3.8895    5.6826 N   0  0  0  0  0  0  0  0  0  0  0  0
  -86.8970    6.2620    6.0842 C   0  0  0  0  0  0  0  0  0  0  0  0
  -87.4761    6.4986    7.0849 O   0  0  0  0  0  0  0  0  0  0  0  0
  -87.1597    7.0491    4.8630 N   0  0  0  0  0  0  0  0  0  0  0  0
  -88.3584    6.0720    2.9900 C   0  0  2  0  0  0  0  0  0  0  0  0
  -88.9970    7.3341    2.1271 C   0  0  0  0  0  0  0  0  0  0  0  0
  -90.5576    6.3809    3.5279 C   0  0  0  0  0  0  0  0  0  0  0  0
  -89.1771    5.8414    3.9801 O   0  0  0  0  0  0  0  0  0  0  0  0
  1 11  1  6
 13  2  1  6
  2 14  1  1
  3  4  1  6
  4  5  1  0
  4  8  1  0
  5  6  2  0
  6  7  1  0
  7  8  2  0
  7  9  1  0
  9 10  2  0
  9 11  1  0
 12  1  1  0
 12 13  1  0
 12 15  1  1
 14 15  1  1
M  END
$$$$
