
     RDKit          3D

  9 10  0  0  0  0  0  0  0  0999 V2000
 4143.0962-3768.4351-4787.1860 C   0  0  0  0  0  0  0  0  0  0  0  0
 4142.4097-3767.3113-4787.6763 C   0  0  0  0  0  0  0  0  0  0  0  0
 4143.1509-3766.2007-4788.0835 C   0  0  0  0  0  0  0  0  0  0  0  0
 4144.5352-3766.2273-4788.0000 C   0  0  0  0  0  0  0  0  0  0  0  0
 4145.1929-3767.3477-4787.5127 C   0  0  0  0  0  0  0  0  0  0  0  0
 4144.4829-3768.4658-4787.0986 C   0  0  0  0  0  0  0  0  0  0  0  0
 4142.1499-3769.3567-4786.8667 N   0  0  0  0  0  0  0  0  0  0  0  0
 4141.0410-3767.6738-4787.6040 C   0  0  0  0  0  0  0  0  0  0  0  0
 4140.8906-3768.8909-4787.1226 N   0  0  0  0  0  0  0  0  0  0  0  0
  1  2  1  0
  1  6  2  0
  1  7  1  0
  2  3  2  0
  2  8  1  0
  3  4  1  0
  4  5  2  0
  5  6  1  0
  7  9  1  0
  8  9  2  0
M  END
$$$$
