
     RDKit          3D

  9 10  0  0  0  0  0  0  0  0999 V2000
  -62.2445 -462.0533 -184.5758 C   0  0  0  0  0  0  0  0  0  0  0  0
  -61.4814 -460.8818 -184.7152 C   0  0  0  0  0  0  0  0  0  0  0  0
  -61.1749 -460.4330 -186.0020 C   0  0  0  0  0  0  0  0  0  0  0  0
  -61.6245 -461.1431 -187.1047 C   0  0  0  0  0  0  0  0  0  0  0  0
  -62.3760 -462.2986 -186.9433 C   0  0  0  0  0  0  0  0  0  0  0  0
  -62.6953 -462.7690 -185.6781 C   0  0  0  0  0  0  0  0  0  0  0  0
  -62.3944 -462.2570 -183.2400 N   0  0  0  0  0  0  0  0  0  0  0  0
  -61.2271 -460.4635 -183.3834 C   0  0  0  0  0  0  0  0  0  0  0  0
  -61.7730 -461.2853 -182.5104 N   0  0  0  0  0  0  0  0  0  0  0  0
  1  2  1  0
  1  6  2  0
  1  7  1  0
  2  3  2  0
  2  8  1  0
  3  4  1  0
  4  5  2  0
  5  6  1  0
  7  9  1  0
  8  9  2  0
M  END
$$$$
