
     RDKit          3D

  9 10  0  0  0  0  0  0  0  0999 V2000
-2372.1021-2734.4429-1818.5652 C   0  0  0  0  0  0  0  0  0  0  0  0
-2372.8274-2734.9451-1817.4711 C   0  0  0  0  0  0  0  0  0  0  0  0
-2374.0920-2734.4131-1817.2074 C   0  0  0  0  0  0  0  0  0  0  0  0
-2374.6025-2733.4121-1818.0206 C   0  0  0  0  0  0  0  0  0  0  0  0
-2373.8672-2732.9316-1819.0951 C   0  0  0  0  0  0  0  0  0  0  0  0
-2372.6079-2733.4390-1819.3812 C   0  0  0  0  0  0  0  0  0  0  0  0
-2370.9263-2735.1257-1818.5917 N   0  0  0  0  0  0  0  0  0  0  0  0
-2371.9810-2735.9346-1816.9083 C   0  0  0  0  0  0  0  0  0  0  0  0
-2370.8521-2736.0378-1817.5795 N   0  0  0  0  0  0  0  0  0  0  0  0
  1  2  1  0
  1  6  2  0
  1  7  1  0
  2  3  2  0
  2  8  1  0
  3  4  1  0
  4  5  2  0
  5  6  1  0
  7  9  1  0
  8  9  2  0
M  END
$$$$
