
     RDKit          3D

  9 10  0  0  0  0  0  0  0  0999 V2000
  696.1843  961.7355 -918.4868 C   0  0  0  0  0  0  0  0  0  0  0  0
  696.1788  962.8566 -917.6400 C   0  0  0  0  0  0  0  0  0  0  0  0
  695.5634  962.7474 -916.3906 C   0  0  0  0  0  0  0  0  0  0  0  0
  694.9766  961.5491 -916.0140 C   0  0  0  0  0  0  0  0  0  0  0  0
  694.9927  960.4548 -916.8674 C   0  0  0  0  0  0  0  0  0  0  0  0
  695.5953  960.5333 -918.1143 C   0  0  0  0  0  0  0  0  0  0  0  0
  696.8387  962.1117 -919.6174 N   0  0  0  0  0  0  0  0  0  0  0  0
  696.8657  963.8585 -918.3733 C   0  0  0  0  0  0  0  0  0  0  0  0
  697.2561  963.4092 -919.5485 N   0  0  0  0  0  0  0  0  0  0  0  0
  1  2  1  0
  1  6  2  0
  1  7  1  0
  2  3  2  0
  2  8  1  0
  3  4  1  0
  4  5  2  0
  5  6  1  0
  7  9  1  0
  8  9  2  0
M  END
$$$$
