
     RDKit          3D

  9 10  0  0  0  0  0  0  0  0999 V2000
  840.7650  166.9065 1056.3383 C   0  0  0  0  0  0  0  0  0  0  0  0
  840.9164  165.5112 1056.4041 C   0  0  0  0  0  0  0  0  0  0  0  0
  841.6831  164.9702 1057.4388 C   0  0  0  0  0  0  0  0  0  0  0  0
  842.2732  165.8103 1058.3708 C   0  0  0  0  0  0  0  0  0  0  0  0
  842.1111  167.1858 1058.2856 C   0  0  0  0  0  0  0  0  0  0  0  0
  841.3561  167.7519 1057.2690 C   0  0  0  0  0  0  0  0  0  0  0  0
  839.9835  167.1571 1055.2545 N   0  0  0  0  0  0  0  0  0  0  0  0
  840.1748  165.0213 1055.2980 C   0  0  0  0  0  0  0  0  0  0  0  0
  839.6218  166.0050 1054.6183 N   0  0  0  0  0  0  0  0  0  0  0  0
  1  2  1  0
  1  6  2  0
  1  7  1  0
  2  3  2  0
  2  8  1  0
  3  4  1  0
  4  5  2  0
  5  6  1  0
  7  9  1  0
  8  9  2  0
M  END
$$$$
