
     RDKit          3D

  9 10  0  0  0  0  0  0  0  0999 V2000
 2590.0205-1225.8474  165.8106 C   0  0  0  0  0  0  0  0  0  0  0  0
 2590.1707-1226.3440  167.1169 C   0  0  0  0  0  0  0  0  0  0  0  0
 2589.0647-1226.9288  167.7392 C   0  0  0  0  0  0  0  0  0  0  0  0
 2587.8562-1227.0076  167.0655 C   0  0  0  0  0  0  0  0  0  0  0  0
 2587.7310-1226.5088  165.7764 C   0  0  0  0  0  0  0  0  0  0  0  0
 2588.8103-1225.9216  165.1325 C   0  0  0  0  0  0  0  0  0  0  0  0
 2591.2310-1225.3427  165.4516 N   0  0  0  0  0  0  0  0  0  0  0  0
 2591.5254-1226.0808  167.4435 C   0  0  0  0  0  0  0  0  0  0  0  0
 2592.1516-1225.4856  166.4487 N   0  0  0  0  0  0  0  0  0  0  0  0
  1  2  1  0
  1  6  2  0
  1  7  1  0
  2  3  2  0
  2  8  1  0
  3  4  1  0
  4  5  2  0
  5  6  1  0
  7  9  1  0
  8  9  2  0
M  END
$$$$
