
     RDKit          3D

  9 10  0  0  0  0  0  0  0  0999 V2000
 2535.2332 3119.9980-2526.0732 C   0  0  0  0  0  0  0  0  0  0  0  0
 2536.3430 3119.4128-2526.7053 C   0  0  0  0  0  0  0  0  0  0  0  0
 2536.9658 3118.3259-2526.0896 C   0  0  0  0  0  0  0  0  0  0  0  0
 2536.4841 3117.8486-2524.8796 C   0  0  0  0  0  0  0  0  0  0  0  0
 2535.3862 3118.4434-2524.2722 C   0  0  0  0  0  0  0  0  0  0  0  0
 2534.7473 3119.5244-2524.8599 C   0  0  0  0  0  0  0  0  0  0  0  0
 2534.8264 3121.0173-2526.8765 N   0  0  0  0  0  0  0  0  0  0  0  0
 2536.5151 3120.1709-2527.8938 C   0  0  0  0  0  0  0  0  0  0  0  0
 2535.6101 3121.1226-2527.9897 N   0  0  0  0  0  0  0  0  0  0  0  0
  1  2  1  0
  1  6  2  0
  1  7  1  0
  2  3  2  0
  2  8  1  0
  3  4  1  0
  4  5  2  0
  5  6  1  0
  7  9  1  0
  8  9  2  0
M  END
$$$$
