
     RDKit          3D

  9 10  0  0  0  0  0  0  0  0999 V2000
 -202.8627-2301.3157-1297.4955 C   0  0  0  0  0  0  0  0  0  0  0  0
 -203.4100-2300.8853-1296.2749 C   0  0  0  0  0  0  0  0  0  0  0  0
 -203.7498-2299.5378-1296.1332 C   0  0  0  0  0  0  0  0  0  0  0  0
 -203.5437-2298.6609-1297.1871 C   0  0  0  0  0  0  0  0  0  0  0  0
 -203.0005-2299.1077-1298.3832 C   0  0  0  0  0  0  0  0  0  0  0  0
 -202.6527-2300.4399-1298.5530 C   0  0  0  0  0  0  0  0  0  0  0  0
 -202.6303-2302.6487-1297.3629 N   0  0  0  0  0  0  0  0  0  0  0  0
 -203.4609-2302.0569-1295.4763 C   0  0  0  0  0  0  0  0  0  0  0  0
 -202.9964-2303.1030-1296.1288 N   0  0  0  0  0  0  0  0  0  0  0  0
  1  2  1  0
  1  6  2  0
  1  7  1  0
  2  3  2  0
  2  8  1  0
  3  4  1  0
  4  5  2  0
  5  6  1  0
  7  9  1  0
  8  9  2  0
M  END
$$$$
