
     RDKit          3D

  9 10  0  0  0  0  0  0  0  0999 V2000
 1327.8658 -244.3207  843.4105 C   0  0  0  0  0  0  0  0  0  0  0  0
 1327.0619 -244.6407  842.3033 C   0  0  0  0  0  0  0  0  0  0  0  0
 1325.8612 -243.9491  842.1278 C   0  0  0  0  0  0  0  0  0  0  0  0
 1325.4893 -242.9713  843.0376 C   0  0  0  0  0  0  0  0  0  0  0  0
 1326.2987 -242.6729  844.1248 C   0  0  0  0  0  0  0  0  0  0  0  0
 1327.4962 -243.3431  844.3259 C   0  0  0  0  0  0  0  0  0  0  0  0
 1328.9567 -245.1291  843.3390 N   0  0  0  0  0  0  0  0  0  0  0  0
 1327.7766 -245.6649  841.6299 C   0  0  0  0  0  0  0  0  0  0  0  0
 1328.9030 -245.9507  842.2506 N   0  0  0  0  0  0  0  0  0  0  0  0
  1  2  1  0
  1  6  2  0
  1  7  1  0
  2  3  2  0
  2  8  1  0
  3  4  1  0
  4  5  2  0
  5  6  1  0
  7  9  1  0
  8  9  2  0
M  END
$$$$
