
     RDKit          3D

  9 10  0  0  0  0  0  0  0  0999 V2000
 4016.9316  343.4153 1645.2966 C   0  0  0  0  0  0  0  0  0  0  0  0
 4016.6279  344.5539 1644.5309 C   0  0  0  0  0  0  0  0  0  0  0  0
 4016.2197  344.3788 1643.2065 C   0  0  0  0  0  0  0  0  0  0  0  0
 4016.1218  343.1001 1642.6785 C   0  0  0  0  0  0  0  0  0  0  0  0
 4016.4282  341.9902 1643.4529 C   0  0  0  0  0  0  0  0  0  0  0  0
 4016.8369  342.1327 1644.7711 C   0  0  0  0  0  0  0  0  0  0  0  0
 4017.2932  343.8659 1646.5276 N   0  0  0  0  0  0  0  0  0  0  0  0
 4016.8452  345.6432 1645.4133 C   0  0  0  0  0  0  0  0  0  0  0  0
 4017.2410  345.2279 1646.5997 N   0  0  0  0  0  0  0  0  0  0  0  0
  1  2  1  0
  1  6  2  0
  1  7  1  0
  2  3  2  0
  2  8  1  0
  3  4  1  0
  4  5  2  0
  5  6  1  0
  7  9  1  0
  8  9  2  0
M  END
$$$$
