
     RDKit          3D

  9 10  0  0  0  0  0  0  0  0999 V2000
 1122.5759  298.0287 -360.1397 C   0  0  0  0  0  0  0  0  0  0  0  0
 1123.6431  297.3203 -359.5625 C   0  0  0  0  0  0  0  0  0  0  0  0
 1123.6101  297.0632 -358.1898 C   0  0  0  0  0  0  0  0  0  0  0  0
 1122.5371  297.5063 -357.4315 C   0  0  0  0  0  0  0  0  0  0  0  0
 1121.4943  298.2055 -358.0224 C   0  0  0  0  0  0  0  0  0  0  0  0
 1121.4998  298.4763 -359.3829 C   0  0  0  0  0  0  0  0  0  0  0  0
 1122.8583  298.1357 -361.4652 N   0  0  0  0  0  0  0  0  0  0  0  0
 1124.5176  297.0502 -360.6470 C   0  0  0  0  0  0  0  0  0  0  0  0
 1124.0447  297.5374 -361.7762 N   0  0  0  0  0  0  0  0  0  0  0  0
  1  2  1  0
  1  6  2  0
  1  7  1  0
  2  3  2  0
  2  8  1  0
  3  4  1  0
  4  5  2  0
  5  6  1  0
  7  9  1  0
  8  9  2  0
M  END
$$$$
