
     RDKit          3D

  9 10  0  0  0  0  0  0  0  0999 V2000
 -840.0074 -483.8649  345.8305 C   0  0  0  0  0  0  0  0  0  0  0  0
 -838.8383 -484.5161  346.2587 C   0  0  0  0  0  0  0  0  0  0  0  0
 -837.8239 -484.7494  345.3270 C   0  0  0  0  0  0  0  0  0  0  0  0
 -837.9874 -484.3386  344.0129 C   0  0  0  0  0  0  0  0  0  0  0  0
 -839.1515 -483.6983  343.6118 C   0  0  0  0  0  0  0  0  0  0  0  0
 -840.1764 -483.4536  344.5143 C   0  0  0  0  0  0  0  0  0  0  0  0
 -840.8131 -483.7666  346.9211 N   0  0  0  0  0  0  0  0  0  0  0  0
 -839.0552 -484.7640  347.6388 C   0  0  0  0  0  0  0  0  0  0  0  0
 -840.2317 -484.3158  348.0270 N   0  0  0  0  0  0  0  0  0  0  0  0
  1  2  1  0
  1  6  2  0
  1  7  1  0
  2  3  2  0
  2  8  1  0
  3  4  1  0
  4  5  2  0
  5  6  1  0
  7  9  1  0
  8  9  2  0
M  END
$$$$
