
     RDKit          3D

 27 30  0  0  0  0  0  0  0  0999 V2000
  890.2169  847.3837 -946.0796 C   0  0  0  0  0  0  0  0  0  0  0  0
  886.1010  846.2016 -950.6534 C   0  0  0  0  0  0  0  0  0  0  0  0
  888.2579  847.6990 -947.4087 C   0  0  0  0  0  0  0  0  0  0  0  0
  889.0984  848.1191 -946.3953 C   0  0  0  0  0  0  0  0  0  0  0  0
  885.8240  843.8801 -951.5150 C   0  0  0  0  0  0  0  0  0  0  0  0
  886.7108  842.6761 -951.7144 C   0  0  0  0  0  0  0  0  0  0  0  0
  889.4860  843.3336 -949.6449 C   0  0  0  0  0  0  0  0  0  0  0  0
  890.1323  842.1751 -949.3287 C   0  0  0  0  0  0  0  0  0  0  0  0
  889.6392  845.7543 -947.7163 C   0  0  0  0  0  0  0  0  0  0  0  0
  890.5082  846.2093 -946.7339 C   0  0  0  0  0  0  0  0  0  0  0  0
  888.5876  839.4357 -947.6896 C   0  0  0  0  0  0  0  0  0  0  0  0
  888.7326  849.5588 -945.5057 Cl  0  0  0  0  0  0  0  0  0  0  0  0
  885.1501  840.2629 -946.8633 N   0  0  0  0  0  0  0  0  0  0  0  0
  886.2100  840.2802 -947.2927 C   0  0  0  0  0  0  0  0  0  0  0  0
  887.5536  840.3339 -947.7723 C   0  0  0  0  0  0  0  0  0  0  0  0
  888.0671  841.4202 -948.4253 N   0  0  0  0  0  0  0  0  0  0  0  0
  887.3621  842.5630 -948.7736 N   0  0  0  0  0  0  0  0  0  0  0  0
  888.0848  843.5059 -949.3619 C   0  0  0  0  0  0  0  0  0  0  0  0
  887.4205  844.7513 -949.6682 C   0  0  0  0  0  0  0  0  0  0  0  0
  887.5955  846.0171 -949.1243 C   0  0  0  0  0  0  0  0  0  0  0  0
  888.5175  846.5018 -948.0734 C   0  0  0  0  0  0  0  0  0  0  0  0
  891.0296  847.8301 -945.1047 F   0  0  0  0  0  0  0  0  0  0  0  0
  886.7419  846.9102 -949.7595 N   0  0  0  0  0  0  0  0  0  0  0  0
  886.4496  844.8915 -950.6445 N   0  0  0  0  0  0  0  0  0  0  0  0
  886.0432  841.6209 -952.3840 O   0  0  0  0  0  0  0  0  0  0  0  0
  889.4019  841.1627 -948.6781 C   0  0  0  0  0  0  0  0  0  0  0  0
  889.7411  839.9517 -948.2280 N   0  0  0  0  0  0  0  0  0  0  0  0
  1  4  2  0
  1 10  1  0
  1 22  1  0
  2 23  2  0
  2 24  1  0
  3  4  1  0
  3 21  2  0
  4 12  1  0
  5  6  1  0
  5 24  1  1
  6 25  1  1
  7  8  2  0
  7 18  1  0
  8 26  1  0
  9 10  2  0
  9 21  1  0
 11 15  2  0
 11 27  1  0
 13 14  3  0
 14 15  1  0
 15 16  1  0
 16 17  1  0
 16 26  1  0
 17 18  2  0
 18 19  1  0
 19 20  2  0
 19 24  1  0
 20 21  1  0
 20 23  1  0
 26 27  2  0
M  END
$$$$
