
     RDKit          3D

 27 30  0  0  0  0  0  0  0  0999 V2000
 1284.0623 1001.8769 -474.7542 C   0  0  0  0  0  0  0  0  0  0  0  0
 1288.8923 1005.6790 -475.9810 C   0  0  0  0  0  0  0  0  0  0  0  0
 1285.8661 1003.1143 -473.7971 C   0  0  0  0  0  0  0  0  0  0  0  0
 1284.8442 1002.1934 -473.6681 C   0  0  0  0  0  0  0  0  0  0  0  0
 1289.1302 1007.8252 -474.7381 C   0  0  0  0  0  0  0  0  0  0  0  0
 1288.6394 1008.4287 -473.4460 C   0  0  0  0  0  0  0  0  0  0  0  0
 1286.4423 1006.1511 -472.1618 C   0  0  0  0  0  0  0  0  0  0  0  0
 1285.7068 1006.7728 -471.1970 C   0  0  0  0  0  0  0  0  0  0  0  0
 1285.2441 1003.4493 -476.0954 C   0  0  0  0  0  0  0  0  0  0  0  0
 1284.2532 1002.4842 -475.9738 C   0  0  0  0  0  0  0  0  0  0  0  0
 1283.8599 1009.7529 -471.7350 C   0  0  0  0  0  0  0  0  0  0  0  0
 1284.5303 1001.4535 -472.1346 Cl  0  0  0  0  0  0  0  0  0  0  0  0
 1284.2729 1010.9181 -475.1357 N   0  0  0  0  0  0  0  0  0  0  0  0
 1284.3657 1010.2991 -474.1782 C   0  0  0  0  0  0  0  0  0  0  0  0
 1284.4148 1009.5386 -472.9710 C   0  0  0  0  0  0  0  0  0  0  0  0
 1285.1288 1008.3785 -472.8534 N   0  0  0  0  0  0  0  0  0  0  0  0
 1285.8258 1007.7485 -473.8744 N   0  0  0  0  0  0  0  0  0  0  0  0
 1286.4825 1006.6561 -473.5091 C   0  0  0  0  0  0  0  0  0  0  0  0
 1287.2947 1006.0093 -474.5132 C   0  0  0  0  0  0  0  0  0  0  0  0
 1287.1274 1004.7855 -475.1487 C   0  0  0  0  0  0  0  0  0  0  0  0
 1286.0691 1003.7606 -475.0148 C   0  0  0  0  0  0  0  0  0  0  0  0
 1283.0897 1000.9594 -474.6059 F   0  0  0  0  0  0  0  0  0  0  0  0
 1288.1571 1004.5997 -476.0627 N   0  0  0  0  0  0  0  0  0  0  0  0
 1288.4392 1006.5635 -475.0592 N   0  0  0  0  0  0  0  0  0  0  0  0
 1287.3213 1008.9380 -473.5564 O   0  0  0  0  0  0  0  0  0  0  0  0
 1285.0177 1007.9515 -471.5423 C   0  0  0  0  0  0  0  0  0  0  0  0
 1284.2477 1008.7860 -470.8393 N   0  0  0  0  0  0  0  0  0  0  0  0
  1  4  2  0
  1 10  1  0
  1 22  1  0
  2 23  2  0
  2 24  1  0
  3  4  1  0
  3 21  2  0
  4 12  1  0
  5  6  1  0
  5 24  1  1
  6 25  1  1
  7  8  2  0
  7 18  1  0
  8 26  1  0
  9 10  2  0
  9 21  1  0
 11 15  2  0
 11 27  1  0
 13 14  3  0
 14 15  1  0
 15 16  1  0
 16 17  1  0
 16 26  1  0
 17 18  2  0
 18 19  1  0
 19 20  2  0
 19 24  1  0
 20 21  1  0
 20 23  1  0
 26 27  2  0
M  END
$$$$
