
     RDKit          3D

 27 30  0  0  0  0  0  0  0  0999 V2000
 -127.0740-1006.2995  548.4646 C   0  0  0  0  0  0  0  0  0  0  0  0
 -131.9030-1009.9388  550.0742 C   0  0  0  0  0  0  0  0  0  0  0  0
 -129.0513-1007.3760  547.6687 C   0  0  0  0  0  0  0  0  0  0  0  0
 -128.0431-1006.4460  547.5004 C   0  0  0  0  0  0  0  0  0  0  0  0
 -132.6228-1011.8145  548.6011 C   0  0  0  0  0  0  0  0  0  0  0  0
 -131.9494-1012.7624  547.6404 C   0  0  0  0  0  0  0  0  0  0  0  0
 -130.7642-1011.7999  546.3945 C   0  0  0  0  0  0  0  0  0  0  0  0
 -130.3621-1012.2346  545.1663 C   0  0  0  0  0  0  0  0  0  0  0  0
 -128.1388-1007.9403  549.8208 C   0  0  0  0  0  0  0  0  0  0  0  0
 -127.0989-1007.0430  549.6221 C   0  0  0  0  0  0  0  0  0  0  0  0
 -128.0439-1010.4979  543.1184 C   0  0  0  0  0  0  0  0  0  0  0  0
 -128.0118-1005.4470  546.0862 Cl  0  0  0  0  0  0  0  0  0  0  0  0
 -127.0023-1007.4104  544.6832 N   0  0  0  0  0  0  0  0  0  0  0  0
 -127.5157-1008.4159  544.5001 C   0  0  0  0  0  0  0  0  0  0  0  0
 -128.1211-1009.6769  544.2150 C   0  0  0  0  0  0  0  0  0  0  0  0
 -128.9845-1010.2978  545.0748 N   0  0  0  0  0  0  0  0  0  0  0  0
 -129.3313-1009.8481  546.3401 N   0  0  0  0  0  0  0  0  0  0  0  0
 -130.2254-1010.5957  546.9722 C   0  0  0  0  0  0  0  0  0  0  0  0
 -130.6861-1010.1265  548.2579 C   0  0  0  0  0  0  0  0  0  0  0  0
 -130.2176-1009.0887  549.0531 C   0  0  0  0  0  0  0  0  0  0  0  0
 -129.1133-1008.1271  548.8407 C   0  0  0  0  0  0  0  0  0  0  0  0
 -126.0911-1005.4034  548.2623 F   0  0  0  0  0  0  0  0  0  0  0  0
 -130.9994-1009.0005  550.1984 N   0  0  0  0  0  0  0  0  0  0  0  0
 -131.7657-1010.6638  548.9373 N   0  0  0  0  0  0  0  0  0  0  0  0
 -132.8789-1013.4492  546.8199 O   0  0  0  0  0  0  0  0  0  0  0  0
 -129.4335-1011.4500  544.4546 C   0  0  0  0  0  0  0  0  0  0  0  0
 -128.8721-1011.5862  543.2509 N   0  0  0  0  0  0  0  0  0  0  0  0
  1  4  2  0
  1 10  1  0
  1 22  1  0
  2 23  2  0
  2 24  1  0
  3  4  1  0
  3 21  2  0
  4 12  1  0
  5  6  1  0
  5 24  1  1
  6 25  1  1
  7  8  2  0
  7 18  1  0
  8 26  1  0
  9 10  2  0
  9 21  1  0
 11 15  2  0
 11 27  1  0
 13 14  3  0
 14 15  1  0
 15 16  1  0
 16 17  1  0
 16 26  1  0
 17 18  2  0
 18 19  1  0
 19 20  2  0
 19 24  1  0
 20 21  1  0
 20 23  1  0
 26 27  2  0
M  END
$$$$
