
     RDKit          3D

 27 30  0  0  0  0  0  0  0  0999 V2000
  222.0749   79.4750   99.2821 C   0  0  0  0  0  0  0  0  0  0  0  0
  223.8387   73.8585  101.4211 C   0  0  0  0  0  0  0  0  0  0  0  0
  221.3873   77.1888   99.3336 C   0  0  0  0  0  0  0  0  0  0  0  0
  221.1616   78.4995   98.9583 C   0  0  0  0  0  0  0  0  0  0  0  0
  222.2548   71.9365  101.3475 C   0  0  0  0  0  0  0  0  0  0  0  0
  220.8125   71.7839  101.7611 C   0  0  0  0  0  0  0  0  0  0  0  0
  219.6105   73.3706  100.8055 C   0  0  0  0  0  0  0  0  0  0  0  0
  218.3037   73.2710  100.4279 C   0  0  0  0  0  0  0  0  0  0  0  0
  223.4131   77.8767  100.4318 C   0  0  0  0  0  0  0  0  0  0  0  0
  223.2076   79.1821  100.0059 C   0  0  0  0  0  0  0  0  0  0  0  0
  216.8515   75.1823   97.8168 C   0  0  0  0  0  0  0  0  0  0  0  0
  219.7173   78.9198   98.1010 Cl  0  0  0  0  0  0  0  0  0  0  0  0
  219.3209   77.4276   96.3904 N   0  0  0  0  0  0  0  0  0  0  0  0
  218.7919   76.6526   97.0441 C   0  0  0  0  0  0  0  0  0  0  0  0
  218.1455   75.6382   97.8134 C   0  0  0  0  0  0  0  0  0  0  0  0
  218.7867   74.9216   98.7855 N   0  0  0  0  0  0  0  0  0  0  0  0
  220.1324   75.0164   99.1076 N   0  0  0  0  0  0  0  0  0  0  0  0
  220.5186   74.2530  100.1205 C   0  0  0  0  0  0  0  0  0  0  0  0
  221.8909   74.3767  100.5533 C   0  0  0  0  0  0  0  0  0  0  0  0
  222.7397   75.4761  100.5368 C   0  0  0  0  0  0  0  0  0  0  0  0
  222.5154   76.8673  100.0861 C   0  0  0  0  0  0  0  0  0  0  0  0
  221.8408   80.7381   98.8823 F   0  0  0  0  0  0  0  0  0  0  0  0
  223.9658   75.1159  101.0817 N   0  0  0  0  0  0  0  0  0  0  0  0
  222.6205   73.3459  101.1197 N   0  0  0  0  0  0  0  0  0  0  0  0
  220.2957   72.9605  102.3579 O   0  0  0  0  0  0  0  0  0  0  0  0
  217.8526   74.0876   99.3728 C   0  0  0  0  0  0  0  0  0  0  0  0
  216.6576   74.2382   98.7959 N   0  0  0  0  0  0  0  0  0  0  0  0
  1  4  2  0
  1 10  1  0
  1 22  1  0
  2 23  2  0
  2 24  1  0
  3  4  1  0
  3 21  2  0
  4 12  1  0
  5  6  1  0
  5 24  1  1
  6 25  1  1
  7  8  2  0
  7 18  1  0
  8 26  1  0
  9 10  2  0
  9 21  1  0
 11 15  2  0
 11 27  1  0
 13 14  3  0
 14 15  1  0
 15 16  1  0
 16 17  1  0
 16 26  1  0
 17 18  2  0
 18 19  1  0
 19 20  2  0
 19 24  1  0
 20 21  1  0
 20 23  1  0
 26 27  2  0
M  END
$$$$
