
     RDKit          3D

 27 30  0  0  0  0  0  0  0  0999 V2000
 -575.8284 -112.8784  -11.8071 C   0  0  0  0  0  0  0  0  0  0  0  0
 -581.1954 -111.0520   -9.1420 C   0  0  0  0  0  0  0  0  0  0  0  0
 -578.0347 -113.0896  -10.9178 C   0  0  0  0  0  0  0  0  0  0  0  0
 -576.9166 -113.6596  -11.4968 C   0  0  0  0  0  0  0  0  0  0  0  0
 -581.7407 -108.6276   -8.9593 C   0  0  0  0  0  0  0  0  0  0  0  0
 -581.4192 -107.3733   -9.7328 C   0  0  0  0  0  0  0  0  0  0  0  0
 -579.5549 -107.4968  -11.0578 C   0  0  0  0  0  0  0  0  0  0  0  0
 -578.8914 -106.3471  -11.3706 C   0  0  0  0  0  0  0  0  0  0  0  0
 -576.9756 -110.9347  -11.0498 C   0  0  0  0  0  0  0  0  0  0  0  0
 -575.8350 -111.5212  -11.5819 C   0  0  0  0  0  0  0  0  0  0  0  0
 -575.5529 -105.6627  -10.3868 C   0  0  0  0  0  0  0  0  0  0  0  0
 -576.8929 -115.3534  -11.8540 Cl  0  0  0  0  0  0  0  0  0  0  0  0
 -574.3019 -108.4322   -8.3737 N   0  0  0  0  0  0  0  0  0  0  0  0
 -574.9288 -107.7312   -9.0247 C   0  0  0  0  0  0  0  0  0  0  0  0
 -575.7590 -106.9036   -9.8393 C   0  0  0  0  0  0  0  0  0  0  0  0
 -577.0300 -107.2550  -10.2016 N   0  0  0  0  0  0  0  0  0  0  0  0
 -577.6541 -108.4579   -9.9055 N   0  0  0  0  0  0  0  0  0  0  0  0
 -578.9086 -108.5532  -10.3234 C   0  0  0  0  0  0  0  0  0  0  0  0
 -579.6332 -109.7506   -9.9667 C   0  0  0  0  0  0  0  0  0  0  0  0
 -579.2889 -111.0869  -10.1270 C   0  0  0  0  0  0  0  0  0  0  0  0
 -578.0771 -111.7141  -10.6985 C   0  0  0  0  0  0  0  0  0  0  0  0
 -574.7444 -113.4647  -12.3471 F   0  0  0  0  0  0  0  0  0  0  0  0
 -580.2994 -111.8852   -9.6057 N   0  0  0  0  0  0  0  0  0  0  0  0
 -580.8657 -109.7518   -9.3376 N   0  0  0  0  0  0  0  0  0  0  0  0
 -582.5510 -106.5359   -9.8951 O   0  0  0  0  0  0  0  0  0  0  0  0
 -577.5652 -106.2004  -10.9189 C   0  0  0  0  0  0  0  0  0  0  0  0
 -576.6758 -105.2115  -11.0373 N   0  0  0  0  0  0  0  0  0  0  0  0
  1  4  2  0
  1 10  1  0
  1 22  1  0
  2 23  2  0
  2 24  1  0
  3  4  1  0
  3 21  2  0
  4 12  1  0
  5  6  1  0
  5 24  1  1
  6 25  1  1
  7  8  2  0
  7 18  1  0
  8 26  1  0
  9 10  2  0
  9 21  1  0
 11 15  2  0
 11 27  1  0
 13 14  3  0
 14 15  1  0
 15 16  1  0
 16 17  1  0
 16 26  1  0
 17 18  2  0
 18 19  1  0
 19 20  2  0
 19 24  1  0
 20 21  1  0
 20 23  1  0
 26 27  2  0
M  END
$$$$
