
     RDKit          3D

 27 30  0  0  0  0  0  0  0  0999 V2000
   28.7342-1130.7043 -456.4879 C   0  0  0  0  0  0  0  0  0  0  0  0
   29.0695-1135.4520 -460.5544 C   0  0  0  0  0  0  0  0  0  0  0  0
   29.1440-1131.7640 -458.5885 C   0  0  0  0  0  0  0  0  0  0  0  0
   28.9656-1130.6154 -457.8403 C   0  0  0  0  0  0  0  0  0  0  0  0
   29.9502-1137.6693 -459.8359 C   0  0  0  0  0  0  0  0  0  0  0  0
   28.7326-1138.5591 -459.8507 C   0  0  0  0  0  0  0  0  0  0  0  0
   31.6588-1136.0962 -457.0266 C   0  0  0  0  0  0  0  0  0  0  0  0
   32.1907-1136.5157 -455.8427 C   0  0  0  0  0  0  0  0  0  0  0  0
   28.7692-1133.0817 -456.6119 C   0  0  0  0  0  0  0  0  0  0  0  0
   28.6442-1131.9240 -455.8564 C   0  0  0  0  0  0  0  0  0  0  0  0
   30.2563-1137.2819 -452.9698 C   0  0  0  0  0  0  0  0  0  0  0  0
   29.0095-1129.0648 -458.6079 Cl  0  0  0  0  0  0  0  0  0  0  0  0
   26.7479-1136.6322 -453.6073 N   0  0  0  0  0  0  0  0  0  0  0  0
   27.8736-1136.7809 -453.7413 C   0  0  0  0  0  0  0  0  0  0  0  0
   29.2891-1136.9127 -453.8702 C   0  0  0  0  0  0  0  0  0  0  0  0
   29.9595-1136.6249 -455.0269 N   0  0  0  0  0  0  0  0  0  0  0  0
   29.3775-1136.2483 -456.2285 N   0  0  0  0  0  0  0  0  0  0  0  0
   30.2349-1135.9753 -457.2022 C   0  0  0  0  0  0  0  0  0  0  0  0
   29.6859-1135.4961 -458.4487 C   0  0  0  0  0  0  0  0  0  0  0  0
   29.1741-1134.2476 -458.7809 C   0  0  0  0  0  0  0  0  0  0  0  0
   29.0362-1133.0126 -457.9791 C   0  0  0  0  0  0  0  0  0  0  0  0
   28.5889-1129.5690 -455.7808 F   0  0  0  0  0  0  0  0  0  0  0  0
   28.7838-1134.2535 -460.1141 N   0  0  0  0  0  0  0  0  0  0  0  0
   29.6025-1136.2562 -459.6024 N   0  0  0  0  0  0  0  0  0  0  0  0
   27.7563-1138.1207 -460.7797 O   0  0  0  0  0  0  0  0  0  0  0  0
   31.3098-1136.7891 -454.7777 C   0  0  0  0  0  0  0  0  0  0  0  0
   31.5123-1137.1854 -453.5186 N   0  0  0  0  0  0  0  0  0  0  0  0
  1  4  2  0
  1 10  1  0
  1 22  1  0
  2 23  2  0
  2 24  1  0
  3  4  1  0
  3 21  2  0
  4 12  1  0
  5  6  1  0
  5 24  1  1
  6 25  1  1
  7  8  2  0
  7 18  1  0
  8 26  1  0
  9 10  2  0
  9 21  1  0
 11 15  2  0
 11 27  1  0
 13 14  3  0
 14 15  1  0
 15 16  1  0
 16 17  1  0
 16 26  1  0
 17 18  2  0
 18 19  1  0
 19 20  2  0
 19 24  1  0
 20 21  1  0
 20 23  1  0
 26 27  2  0
M  END
$$$$
