
     RDKit          3D

 27 30  0  0  0  0  0  0  0  0999 V2000
   83.5610  171.2924  -61.3890 C   0  0  0  0  0  0  0  0  0  0  0  0
   89.5191  169.6498  -60.3730 C   0  0  0  0  0  0  0  0  0  0  0  0
   84.9619  170.2294  -59.7735 C   0  0  0  0  0  0  0  0  0  0  0  0
   83.7165  170.6811  -60.1672 C   0  0  0  0  0  0  0  0  0  0  0  0
   90.2248  168.8185  -58.1327 C   0  0  0  0  0  0  0  0  0  0  0  0
   90.1333  169.4966  -56.7887 C   0  0  0  0  0  0  0  0  0  0  0  0
   86.8493  168.0742  -57.1948 C   0  0  0  0  0  0  0  0  0  0  0  0
   86.2132  167.8925  -56.0023 C   0  0  0  0  0  0  0  0  0  0  0  0
   85.8946  171.0931  -61.8148 C   0  0  0  0  0  0  0  0  0  0  0  0
   84.6320  171.4966  -62.2279 C   0  0  0  0  0  0  0  0  0  0  0  0
   85.3142  170.5400  -53.8198 C   0  0  0  0  0  0  0  0  0  0  0  0
   82.3550  170.4995  -59.1133 Cl  0  0  0  0  0  0  0  0  0  0  0  0
   86.4727  173.6993  -55.2179 N   0  0  0  0  0  0  0  0  0  0  0  0
   86.2037  172.6029  -55.0353 C   0  0  0  0  0  0  0  0  0  0  0  0
   85.9171  171.2165  -54.8499 C   0  0  0  0  0  0  0  0  0  0  0  0
   86.2718  170.2572  -55.7575 N   0  0  0  0  0  0  0  0  0  0  0  0
   86.8745  170.4866  -56.9855 N   0  0  0  0  0  0  0  0  0  0  0  0
   87.1675  169.3933  -57.6759 C   0  0  0  0  0  0  0  0  0  0  0  0
   87.8738  169.5709  -58.9230 C   0  0  0  0  0  0  0  0  0  0  0  0
   87.4140  170.0087  -60.1585 C   0  0  0  0  0  0  0  0  0  0  0  0
   86.0681  170.4423  -60.5938 C   0  0  0  0  0  0  0  0  0  0  0  0
   82.3325  171.7000  -61.7561 F   0  0  0  0  0  0  0  0  0  0  0  0
   88.4733  170.0387  -61.0568 N   0  0  0  0  0  0  0  0  0  0  0  0
   89.2286  169.3393  -59.0859 N   0  0  0  0  0  0  0  0  0  0  0  0
   88.9031  170.1768  -56.6109 O   0  0  0  0  0  0  0  0  0  0  0  0
   85.9110  169.0306  -55.2297 C   0  0  0  0  0  0  0  0  0  0  0  0
   85.3279  169.1836  -54.0381 N   0  0  0  0  0  0  0  0  0  0  0  0
  1  4  2  0
  1 10  1  0
  1 22  1  0
  2 23  2  0
  2 24  1  0
  3  4  1  0
  3 21  2  0
  4 12  1  0
  5  6  1  0
  5 24  1  1
  6 25  1  1
  7  8  2  0
  7 18  1  0
  8 26  1  0
  9 10  2  0
  9 21  1  0
 11 15  2  0
 11 27  1  0
 13 14  3  0
 14 15  1  0
 15 16  1  0
 16 17  1  0
 16 26  1  0
 17 18  2  0
 18 19  1  0
 19 20  2  0
 19 24  1  0
 20 21  1  0
 20 23  1  0
 26 27  2  0
M  END
$$$$
