
     RDKit          3D

 27 30  0  0  0  0  0  0  0  0999 V2000
   90.2659  363.0550-1791.3331 C   0  0  0  0  0  0  0  0  0  0  0  0
   92.3598  359.3126-1786.7699 C   0  0  0  0  0  0  0  0  0  0  0  0
   91.0631  362.4497-1789.1647 C   0  0  0  0  0  0  0  0  0  0  0  0
   90.6948  363.4190-1790.0780 C   0  0  0  0  0  0  0  0  0  0  0  0
   92.0939  356.8413-1786.9486 C   0  0  0  0  0  0  0  0  0  0  0  0
   90.8394  356.2962-1786.3135 C   0  0  0  0  0  0  0  0  0  0  0  0
   89.3856  358.1206-1790.0695 C   0  0  0  0  0  0  0  0  0  0  0  0
   88.7951  357.3454-1791.0236 C   0  0  0  0  0  0  0  0  0  0  0  0
   90.6417  360.7602-1790.8237 C   0  0  0  0  0  0  0  0  0  0  0  0
   90.2224  361.7350-1791.7184 C   0  0  0  0  0  0  0  0  0  0  0  0
   90.3840  354.5876-1792.5879 C   0  0  0  0  0  0  0  0  0  0  0  0
   90.7952  365.0944-1789.6534 Cl  0  0  0  0  0  0  0  0  0  0  0  0
   93.7677  354.1945-1791.3760 N   0  0  0  0  0  0  0  0  0  0  0  0
   92.7060  354.5923-1791.5243 C   0  0  0  0  0  0  0  0  0  0  0  0
   91.3628  355.0292-1791.7350 C   0  0  0  0  0  0  0  0  0  0  0  0
   90.8126  356.0871-1791.0656 N   0  0  0  0  0  0  0  0  0  0  0  0
   91.4295  356.8214-1790.0637 N   0  0  0  0  0  0  0  0  0  0  0  0
   90.7139  357.8342-1789.5939 C   0  0  0  0  0  0  0  0  0  0  0  0
   91.3420  358.6840-1788.6095 C   0  0  0  0  0  0  0  0  0  0  0  0
   91.4907  360.0649-1788.5822 C   0  0  0  0  0  0  0  0  0  0  0  0
   91.0493  361.1065-1789.5354 C   0  0  0  0  0  0  0  0  0  0  0  0
   89.8906  364.0189-1792.1929 F   0  0  0  0  0  0  0  0  0  0  0  0
   92.1457  360.4316-1787.4132 N   0  0  0  0  0  0  0  0  0  0  0  0
   91.9142  358.2202-1787.4374 N   0  0  0  0  0  0  0  0  0  0  0  0
   89.7270  356.3448-1787.1903 O   0  0  0  0  0  0  0  0  0  0  0  0
   89.5368  356.2774-1791.5649 C   0  0  0  0  0  0  0  0  0  0  0  0
   89.2580  355.3707-1792.5046 N   0  0  0  0  0  0  0  0  0  0  0  0
  1  4  2  0
  1 10  1  0
  1 22  1  0
  2 23  2  0
  2 24  1  0
  3  4  1  0
  3 21  2  0
  4 12  1  0
  5  6  1  0
  5 24  1  1
  6 25  1  1
  7  8  2  0
  7 18  1  0
  8 26  1  0
  9 10  2  0
  9 21  1  0
 11 15  2  0
 11 27  1  0
 13 14  3  0
 14 15  1  0
 15 16  1  0
 16 17  1  0
 16 26  1  0
 17 18  2  0
 18 19  1  0
 19 20  2  0
 19 24  1  0
 20 21  1  0
 20 23  1  0
 26 27  2  0
M  END
$$$$
