
     RDKit          3D

 27 30  0  0  0  0  0  0  0  0999 V2000
 -366.4035  484.3614  154.8065 C   0  0  0  0  0  0  0  0  0  0  0  0
 -368.0310  478.9008  152.1939 C   0  0  0  0  0  0  0  0  0  0  0  0
 -367.7564  483.0013  153.3845 C   0  0  0  0  0  0  0  0  0  0  0  0
 -367.3522  484.2500  153.8174 C   0  0  0  0  0  0  0  0  0  0  0  0
 -369.0603  477.1134  153.5917 C   0  0  0  0  0  0  0  0  0  0  0  0
 -370.3284  476.9404  152.7938 C   0  0  0  0  0  0  0  0  0  0  0  0
 -369.6495  480.1064  156.2806 C   0  0  0  0  0  0  0  0  0  0  0  0
 -369.9590  479.9991  157.6046 C   0  0  0  0  0  0  0  0  0  0  0  0
 -366.3027  481.9920  155.0124 C   0  0  0  0  0  0  0  0  0  0  0  0
 -365.8615  483.2483  155.4059 C   0  0  0  0  0  0  0  0  0  0  0  0
 -368.2370  477.8814  159.8697 C   0  0  0  0  0  0  0  0  0  0  0  0
 -368.0565  485.6756  153.1323 Cl  0  0  0  0  0  0  0  0  0  0  0  0
 -365.6677  475.9924  158.1674 N   0  0  0  0  0  0  0  0  0  0  0  0
 -366.5135  476.7340  158.3739 C   0  0  0  0  0  0  0  0  0  0  0  0
 -367.5742  477.6346  158.6940 C   0  0  0  0  0  0  0  0  0  0  0  0
 -368.1671  478.4437  157.7649 N   0  0  0  0  0  0  0  0  0  0  0  0
 -367.7908  478.5621  156.4351 N   0  0  0  0  0  0  0  0  0  0  0  0
 -368.5461  479.3774  155.7122 C   0  0  0  0  0  0  0  0  0  0  0  0
 -368.2512  479.4712  154.3014 C   0  0  0  0  0  0  0  0  0  0  0  0
 -367.7043  480.5167  153.5681 C   0  0  0  0  0  0  0  0  0  0  0  0
 -367.2401  481.8569  153.9889 C   0  0  0  0  0  0  0  0  0  0  0  0
 -366.0116  485.5899  155.1906 F   0  0  0  0  0  0  0  0  0  0  0  0
 -367.5867  480.1308  152.2388 N   0  0  0  0  0  0  0  0  0  0  0  0
 -368.4596  478.4450  153.3964 N   0  0  0  0  0  0  0  0  0  0  0  0
 -370.3515  475.7183  152.0768 O   0  0  0  0  0  0  0  0  0  0  0  0
 -369.1944  479.1209  158.3969 C   0  0  0  0  0  0  0  0  0  0  0  0
 -369.2568  478.7837  159.6875 N   0  0  0  0  0  0  0  0  0  0  0  0
  1  4  2  0
  1 10  1  0
  1 22  1  0
  2 23  2  0
  2 24  1  0
  3  4  1  0
  3 21  2  0
  4 12  1  0
  5  6  1  0
  5 24  1  1
  6 25  1  1
  7  8  2  0
  7 18  1  0
  8 26  1  0
  9 10  2  0
  9 21  1  0
 11 15  2  0
 11 27  1  0
 13 14  3  0
 14 15  1  0
 15 16  1  0
 16 17  1  0
 16 26  1  0
 17 18  2  0
 18 19  1  0
 19 20  2  0
 19 24  1  0
 20 21  1  0
 20 23  1  0
 26 27  2  0
M  END
$$$$
