
     RDKit          3D

 27 30  0  0  0  0  0  0  0  0999 V2000
   81.2931  953.7123 -542.5898 C   0  0  0  0  0  0  0  0  0  0  0  0
   78.5280  951.8911 -547.9055 C   0  0  0  0  0  0  0  0  0  0  0  0
   81.2598  951.9152 -544.1621 C   0  0  0  0  0  0  0  0  0  0  0  0
   81.7789  952.5010 -543.0232 C   0  0  0  0  0  0  0  0  0  0  0  0
   79.2368  949.7836 -549.0303 C   0  0  0  0  0  0  0  0  0  0  0  0
   79.2393  950.4074 -550.4033 C   0  0  0  0  0  0  0  0  0  0  0  0
   80.9771  948.9289 -545.4550 C   0  0  0  0  0  0  0  0  0  0  0  0
   81.9178  947.9800 -545.1830 C   0  0  0  0  0  0  0  0  0  0  0  0
   79.8249  953.8220 -544.4603 C   0  0  0  0  0  0  0  0  0  0  0  0
   80.3124  954.3796 -543.2863 C   0  0  0  0  0  0  0  0  0  0  0  0
   84.8780  947.5315 -547.0847 C   0  0  0  0  0  0  0  0  0  0  0  0
   83.0575  951.7229 -542.1530 Cl  0  0  0  0  0  0  0  0  0  0  0  0
   84.9592  949.8214 -549.8840 N   0  0  0  0  0  0  0  0  0  0  0  0
   84.6439  949.2922 -548.9205 C   0  0  0  0  0  0  0  0  0  0  0  0
   84.2755  948.5737 -547.7428 C   0  0  0  0  0  0  0  0  0  0  0  0
   83.1270  948.8292 -547.0463 N   0  0  0  0  0  0  0  0  0  0  0  0
   82.2171  949.8388 -547.3252 N   0  0  0  0  0  0  0  0  0  0  0  0
   81.1514  949.8622 -546.5372 C   0  0  0  0  0  0  0  0  0  0  0  0
   80.1309  950.8389 -546.8381 C   0  0  0  0  0  0  0  0  0  0  0  0
   79.7562  951.9846 -546.1479 C   0  0  0  0  0  0  0  0  0  0  0  0
   80.2813  952.5792 -544.8992 C   0  0  0  0  0  0  0  0  0  0  0  0
   81.8002  954.2468 -541.4640 F   0  0  0  0  0  0  0  0  0  0  0  0
   78.7352  952.6232 -546.8407 N   0  0  0  0  0  0  0  0  0  0  0  0
   79.3233  950.7947 -547.9613 N   0  0  0  0  0  0  0  0  0  0  0  0
   80.1260  949.7506 -551.2921 O   0  0  0  0  0  0  0  0  0  0  0  0
   83.0504  947.9089 -546.0170 C   0  0  0  0  0  0  0  0  0  0  0  0
   84.1129  947.0994 -546.0284 N   0  0  0  0  0  0  0  0  0  0  0  0
  1  4  2  0
  1 10  1  0
  1 22  1  0
  2 23  2  0
  2 24  1  0
  3  4  1  0
  3 21  2  0
  4 12  1  0
  5  6  1  0
  5 24  1  1
  6 25  1  1
  7  8  2  0
  7 18  1  0
  8 26  1  0
  9 10  2  0
  9 21  1  0
 11 15  2  0
 11 27  1  0
 13 14  3  0
 14 15  1  0
 15 16  1  0
 16 17  1  0
 16 26  1  0
 17 18  2  0
 18 19  1  0
 19 20  2  0
 19 24  1  0
 20 21  1  0
 20 23  1  0
 26 27  2  0
M  END
$$$$
