
     RDKit          3D

 27 30  0  0  0  0  0  0  0  0999 V2000
 -430.5701 -142.6921 -515.0490 C   0  0  0  0  0  0  0  0  0  0  0  0
 -427.6088 -144.3025 -520.3203 C   0  0  0  0  0  0  0  0  0  0  0  0
 -429.6953 -144.3262 -516.5542 C   0  0  0  0  0  0  0  0  0  0  0  0
 -430.1422 -143.9756 -515.2946 C   0  0  0  0  0  0  0  0  0  0  0  0
 -428.8591 -144.5096 -522.4656 C   0  0  0  0  0  0  0  0  0  0  0  0
 -427.5263 -144.3523 -523.1534 C   0  0  0  0  0  0  0  0  0  0  0  0
 -432.0986 -144.7585 -520.0740 C   0  0  0  0  0  0  0  0  0  0  0  0
 -433.4261 -144.6244 -520.3567 C   0  0  0  0  0  0  0  0  0  0  0  0
 -430.0388 -142.0601 -517.2816 C   0  0  0  0  0  0  0  0  0  0  0  0
 -430.5367 -141.7274 -516.0291 C   0  0  0  0  0  0  0  0  0  0  0  0
 -434.8285 -141.7822 -521.9489 C   0  0  0  0  0  0  0  0  0  0  0  0
 -430.1410 -145.1444 -514.0172 Cl  0  0  0  0  0  0  0  0  0  0  0  0
 -432.2270 -139.3357 -522.6240 N   0  0  0  0  0  0  0  0  0  0  0  0
 -432.8052 -140.2577 -522.2722 C   0  0  0  0  0  0  0  0  0  0  0  0
 -433.5012 -141.4430 -521.8855 C   0  0  0  0  0  0  0  0  0  0  0  0
 -432.8790 -142.5123 -521.3027 N   0  0  0  0  0  0  0  0  0  0  0  0
 -431.5158 -142.6324 -521.0762 N   0  0  0  0  0  0  0  0  0  0  0  0
 -431.1501 -143.7438 -520.4529 C   0  0  0  0  0  0  0  0  0  0  0  0
 -429.7526 -143.8805 -520.1154 C   0  0  0  0  0  0  0  0  0  0  0  0
 -429.1050 -143.7168 -518.8972 C   0  0  0  0  0  0  0  0  0  0  0  0
 -429.6301 -143.3639 -517.5601 C   0  0  0  0  0  0  0  0  0  0  0  0
 -431.0226 -142.3858 -513.8195 F   0  0  0  0  0  0  0  0  0  0  0  0
 -427.7506 -143.9804 -519.0599 N   0  0  0  0  0  0  0  0  0  0  0  0
 -428.7703 -144.2504 -521.0176 N   0  0  0  0  0  0  0  0  0  0  0  0
 -426.6867 -143.4201 -522.4948 O   0  0  0  0  0  0  0  0  0  0  0  0
 -433.8539 -143.4438 -520.9943 C   0  0  0  0  0  0  0  0  0  0  0  0
 -435.0577 -143.0105 -521.3773 N   0  0  0  0  0  0  0  0  0  0  0  0
  1  4  2  0
  1 10  1  0
  1 22  1  0
  2 23  2  0
  2 24  1  0
  3  4  1  0
  3 21  2  0
  4 12  1  0
  5  6  1  0
  5 24  1  1
  6 25  1  1
  7  8  2  0
  7 18  1  0
  8 26  1  0
  9 10  2  0
  9 21  1  0
 11 15  2  0
 11 27  1  0
 13 14  3  0
 14 15  1  0
 15 16  1  0
 16 17  1  0
 16 26  1  0
 17 18  2  0
 18 19  1  0
 19 20  2  0
 19 24  1  0
 20 21  1  0
 20 23  1  0
 26 27  2  0
M  END
$$$$
