
     RDKit          3D

 16 17  0  0  0  0  0  0  0  0999 V2000
 -303.1146 -227.1656  127.9749 C   0  0  0  0  0  0  0  0  0  0  0  0
 -303.1800 -225.7130  127.8363 O   0  0  0  0  0  0  0  0  0  0  0  0
 -304.0974 -228.0605  127.1712 C   0  0  0  0  0  0  0  0  0  0  0  0
 -303.4604 -228.7752  126.0813 O   0  0  0  0  0  0  0  0  0  0  0  0
 -302.3445 -228.0165  125.5184 C   0  0  0  0  0  0  0  0  0  0  0  0
 -300.9561 -228.5208  125.7558 N   0  0  0  0  0  0  0  0  0  0  0  0
 -299.8495 -228.1161  125.1335 C   0  0  0  0  0  0  0  0  0  0  0  0
 -298.7712 -228.7794  125.6550 N   0  0  0  0  0  0  0  0  0  0  0  0
 -299.1365 -229.6113  126.6098 C   0  0  0  0  0  0  0  0  0  0  0  0
 -298.4826 -230.5117  127.4626 C   0  0  0  0  0  0  0  0  0  0  0  0
 -297.2293 -230.7361  127.5120 O   0  0  0  0  0  0  0  0  0  0  0  0
 -299.2544 -231.1883  128.3128 N   0  0  0  0  0  0  0  0  0  0  0  0
 -300.5712 -231.0439  128.3638 C   0  0  0  0  0  0  0  0  0  0  0  0
 -301.2929 -231.7651  129.2670 N   0  0  0  0  0  0  0  0  0  0  0  0
 -301.2149 -230.1944  127.5419 N   0  0  0  0  0  0  0  0  0  0  0  0
 -300.5299 -229.4553  126.6579 C   0  0  0  0  0  0  0  0  0  0  0  0
  1  2  1  6
  1  3  1  0
  3  4  1  1
  5  4  1  6
  5  6  1  0
  6  7  1  0
  6 16  1  0
  7  8  2  0
  8  9  1  0
  9 10  1  0
  9 16  2  0
 10 11  2  0
 10 12  1  0
 12 13  1  0
 13 14  1  0
 13 15  2  0
 15 16  1  0
M  END
$$$$
