
     RDKit          3D

 16 17  0  0  0  0  0  0  0  0999 V2000
 -321.0810  492.3560  295.8932 C   0  0  0  0  0  0  0  0  0  0  0  0
 -321.1122  493.0876  297.1571 O   0  0  0  0  0  0  0  0  0  0  0  0
 -320.9438  490.8084  295.9026 C   0  0  0  0  0  0  0  0  0  0  0  0
 -320.5765  490.2583  294.6118 O   0  0  0  0  0  0  0  0  0  0  0  0
 -321.4187  490.7879  293.5405 C   0  0  0  0  0  0  0  0  0  0  0  0
 -321.9905  492.1608  293.7043 N   0  0  0  0  0  0  0  0  0  0  0  0
 -321.4115  493.3073  293.3499 C   0  0  0  0  0  0  0  0  0  0  0  0
 -322.2635  494.3447  293.6196 N   0  0  0  0  0  0  0  0  0  0  0  0
 -323.3941  493.9124  294.1411 C   0  0  0  0  0  0  0  0  0  0  0  0
 -324.5828  494.5031  294.5928 C   0  0  0  0  0  0  0  0  0  0  0  0
 -324.8653  495.7453  294.5798 O   0  0  0  0  0  0  0  0  0  0  0  0
 -325.5108  493.6744  295.0707 N   0  0  0  0  0  0  0  0  0  0  0  0
 -325.3414  492.3612  295.1355 C   0  0  0  0  0  0  0  0  0  0  0  0
 -326.3402  491.5770  295.6295 N   0  0  0  0  0  0  0  0  0  0  0  0
 -324.2003  491.7808  294.7197 N   0  0  0  0  0  0  0  0  0  0  0  0
 -323.2083  492.5235  294.2088 C   0  0  0  0  0  0  0  0  0  0  0  0
  1  2  1  6
  1  3  1  0
  3  4  1  1
  5  4  1  6
  5  6  1  0
  6  7  1  0
  6 16  1  0
  7  8  2  0
  8  9  1  0
  9 10  1  0
  9 16  2  0
 10 11  2  0
 10 12  1  0
 12 13  1  0
 13 14  1  0
 13 15  2  0
 15 16  1  0
M  END
$$$$
