
     RDKit          3D

 16 17  0  0  0  0  0  0  0  0999 V2000
  261.1966    5.5508  412.2034 C   0  0  0  0  0  0  0  0  0  0  0  0
  260.7772    4.1978  412.5598 O   0  0  0  0  0  0  0  0  0  0  0  0
  260.5872    6.2413  410.9526 C   0  0  0  0  0  0  0  0  0  0  0  0
  260.2973    7.6475  411.1589 O   0  0  0  0  0  0  0  0  0  0  0  0
  259.1362    8.0783  410.3816 C   0  0  0  0  0  0  0  0  0  0  0  0
  259.3705    8.6470  409.0175 N   0  0  0  0  0  0  0  0  0  0  0  0
  259.7077    9.9039  408.7311 C   0  0  0  0  0  0  0  0  0  0  0  0
  259.8748   10.0280  407.3777 N   0  0  0  0  0  0  0  0  0  0  0  0
  259.6595    8.8829  406.7617 C   0  0  0  0  0  0  0  0  0  0  0  0
  259.6877    8.4359  405.4328 C   0  0  0  0  0  0  0  0  0  0  0  0
  259.9799    9.1298  404.4051 O   0  0  0  0  0  0  0  0  0  0  0  0
  259.3900    7.1521  405.2342 N   0  0  0  0  0  0  0  0  0  0  0  0
  259.0722    6.3240  406.2192 C   0  0  0  0  0  0  0  0  0  0  0  0
  258.7878    5.0214  405.9383 N   0  0  0  0  0  0  0  0  0  0  0  0
  259.0263    6.7417  407.4982 N   0  0  0  0  0  0  0  0  0  0  0  0
  259.3220    8.0118  407.8081 C   0  0  0  0  0  0  0  0  0  0  0  0
  1  2  1  6
  1  3  1  0
  3  4  1  1
  5  4  1  6
  5  6  1  0
  6  7  1  0
  6 16  1  0
  7  8  2  0
  8  9  1  0
  9 10  1  0
  9 16  2  0
 10 11  2  0
 10 12  1  0
 12 13  1  0
 13 14  1  0
 13 15  2  0
 15 16  1  0
M  END
$$$$
