
     RDKit          3D

 16 17  0  0  0  0  0  0  0  0999 V2000
 -271.2622 -142.3546  428.8534 C   0  0  0  0  0  0  0  0  0  0  0  0
 -270.5782 -143.4774  429.4898 O   0  0  0  0  0  0  0  0  0  0  0  0
 -272.8098 -142.2486  428.9364 C   0  0  0  0  0  0  0  0  0  0  0  0
 -273.2790 -141.6864  430.1888 O   0  0  0  0  0  0  0  0  0  0  0  0
 -272.3006 -141.8655  431.2604 C   0  0  0  0  0  0  0  0  0  0  0  0
 -272.6926 -141.4689  432.6487 N   0  0  0  0  0  0  0  0  0  0  0  0
 -273.1743 -142.2730  433.5958 C   0  0  0  0  0  0  0  0  0  0  0  0
 -273.3714 -141.5507  434.7424 N   0  0  0  0  0  0  0  0  0  0  0  0
 -273.0289 -140.2887  434.5781 C   0  0  0  0  0  0  0  0  0  0  0  0
 -273.0165 -139.1384  435.3799 C   0  0  0  0  0  0  0  0  0  0  0  0
 -273.3657 -139.0623  436.6028 O   0  0  0  0  0  0  0  0  0  0  0  0
 -272.5826 -138.0188  434.8015 N   0  0  0  0  0  0  0  0  0  0  0  0
 -272.1878 -137.9657  433.5372 C   0  0  0  0  0  0  0  0  0  0  0  0
 -271.7487 -136.7848  433.0181 N   0  0  0  0  0  0  0  0  0  0  0  0
 -272.2080 -139.0577  432.7505 N   0  0  0  0  0  0  0  0  0  0  0  0
 -272.6143 -140.2382  433.2390 C   0  0  0  0  0  0  0  0  0  0  0  0
  1  2  1  6
  1  3  1  0
  3  4  1  1
  5  4  1  6
  5  6  1  0
  6  7  1  0
  6 16  1  0
  7  8  2  0
  8  9  1  0
  9 10  1  0
  9 16  2  0
 10 11  2  0
 10 12  1  0
 12 13  1  0
 13 14  1  0
 13 15  2  0
 15 16  1  0
M  END
$$$$
