
     RDKit          3D

 16 17  0  0  0  0  0  0  0  0999 V2000
  -83.3259 -157.3302  -95.3023 C   0  0  0  0  0  0  0  0  0  0  0  0
  -84.6448 -157.6906  -94.7882 O   0  0  0  0  0  0  0  0  0  0  0  0
  -82.0530 -157.7445  -94.5142 C   0  0  0  0  0  0  0  0  0  0  0  0
  -80.8266 -157.5495  -95.2639 O   0  0  0  0  0  0  0  0  0  0  0  0
  -79.7181 -157.1611  -94.3930 C   0  0  0  0  0  0  0  0  0  0  0  0
  -79.2960 -155.7258  -94.3840 N   0  0  0  0  0  0  0  0  0  0  0  0
  -79.4731 -154.8422  -95.3656 C   0  0  0  0  0  0  0  0  0  0  0  0
  -78.9921 -153.6237  -94.9670 N   0  0  0  0  0  0  0  0  0  0  0  0
  -78.5038 -153.6785  -93.7440 C   0  0  0  0  0  0  0  0  0  0  0  0
  -77.9057 -152.7697  -92.8592 C   0  0  0  0  0  0  0  0  0  0  0  0
  -77.6927 -151.5318  -93.0723 O   0  0  0  0  0  0  0  0  0  0  0  0
  -77.5372 -153.2540  -91.6735 N   0  0  0  0  0  0  0  0  0  0  0  0
  -77.7066 -154.5224  -91.3275 C   0  0  0  0  0  0  0  0  0  0  0  0
  -77.3115 -154.9420  -90.0928 N   0  0  0  0  0  0  0  0  0  0  0  0
  -78.2654 -155.4099  -92.1713 N   0  0  0  0  0  0  0  0  0  0  0  0
  -78.6839 -155.0224  -93.3843 C   0  0  0  0  0  0  0  0  0  0  0  0
  1  2  1  6
  1  3  1  0
  3  4  1  1
  5  4  1  6
  5  6  1  0
  6  7  1  0
  6 16  1  0
  7  8  2  0
  8  9  1  0
  9 10  1  0
  9 16  2  0
 10 11  2  0
 10 12  1  0
 12 13  1  0
 13 14  1  0
 13 15  2  0
 15 16  1  0
M  END
$$$$
