
     RDKit          3D

 16 17  0  0  0  0  0  0  0  0999 V2000
 -295.4234  134.1099  115.2356 C   0  0  0  0  0  0  0  0  0  0  0  0
 -295.0476  133.2173  116.3290 O   0  0  0  0  0  0  0  0  0  0  0  0
 -296.8324  133.9887  114.5927 C   0  0  0  0  0  0  0  0  0  0  0  0
 -297.3300  135.2442  114.0630 O   0  0  0  0  0  0  0  0  0  0  0  0
 -296.2760  136.2550  113.9914 C   0  0  0  0  0  0  0  0  0  0  0  0
 -295.0331  136.0381  114.7957 N   0  0  0  0  0  0  0  0  0  0  0  0
 -294.0159  135.2375  114.4804 C   0  0  0  0  0  0  0  0  0  0  0  0
 -293.0463  135.3412  115.4419 N   0  0  0  0  0  0  0  0  0  0  0  0
 -293.3959  136.1934  116.3844 C   0  0  0  0  0  0  0  0  0  0  0  0
 -292.8173  136.6775  117.5664 C   0  0  0  0  0  0  0  0  0  0  0  0
 -291.6741  136.3660  118.0341 O   0  0  0  0  0  0  0  0  0  0  0  0
 -293.5362  137.5611  118.2582 N   0  0  0  0  0  0  0  0  0  0  0  0
 -294.7384  137.9700  117.8773 C   0  0  0  0  0  0  0  0  0  0  0  0
 -295.4097  138.8833  118.6335 N   0  0  0  0  0  0  0  0  0  0  0  0
 -295.3132  137.5035  116.7533 N   0  0  0  0  0  0  0  0  0  0  0  0
 -294.6685  136.6208  115.9772 C   0  0  0  0  0  0  0  0  0  0  0  0
  1  2  1  6
  1  3  1  0
  3  4  1  1
  5  4  1  6
  5  6  1  0
  6  7  1  0
  6 16  1  0
  7  8  2  0
  8  9  1  0
  9 10  1  0
  9 16  2  0
 10 11  2  0
 10 12  1  0
 12 13  1  0
 13 14  1  0
 13 15  2  0
 15 16  1  0
M  END
$$$$
