
     RDKit          3D

 16 17  0  0  0  0  0  0  0  0999 V2000
  -48.9854  -69.7927   55.3837 C   0  0  0  0  0  0  0  0  0  0  0  0
  -48.0193  -68.7080   55.2301 O   0  0  0  0  0  0  0  0  0  0  0  0
  -49.3714  -70.6597   54.1539 C   0  0  0  0  0  0  0  0  0  0  0  0
  -50.1968  -69.9538   53.1922 O   0  0  0  0  0  0  0  0  0  0  0  0
  -50.2590  -68.5222   53.4829 C   0  0  0  0  0  0  0  0  0  0  0  0
  -49.7481  -67.5685   52.4495 N   0  0  0  0  0  0  0  0  0  0  0  0
  -48.5250  -67.0427   52.3932 C   0  0  0  0  0  0  0  0  0  0  0  0
  -48.4257  -66.2518   51.2798 N   0  0  0  0  0  0  0  0  0  0  0  0
  -49.5523  -66.2439   50.5959 C   0  0  0  0  0  0  0  0  0  0  0  0
  -50.0084  -65.6353   49.4179 C   0  0  0  0  0  0  0  0  0  0  0  0
  -49.3376  -64.8718   48.6496 O   0  0  0  0  0  0  0  0  0  0  0  0
  -51.2672  -65.8963   49.0663 N   0  0  0  0  0  0  0  0  0  0  0  0
  -52.0682  -66.6771   49.7778 C   0  0  0  0  0  0  0  0  0  0  0  0
  -53.3416  -66.9040   49.3493 N   0  0  0  0  0  0  0  0  0  0  0  0
  -51.6497  -67.2563   50.9184 N   0  0  0  0  0  0  0  0  0  0  0  0
  -50.3959  -67.0694   51.3541 C   0  0  0  0  0  0  0  0  0  0  0  0
  1  2  1  6
  1  3  1  0
  3  4  1  1
  5  4  1  6
  5  6  1  0
  6  7  1  0
  6 16  1  0
  7  8  2  0
  8  9  1  0
  9 10  1  0
  9 16  2  0
 10 11  2  0
 10 12  1  0
 12 13  1  0
 13 14  1  0
 13 15  2  0
 15 16  1  0
M  END
$$$$
