
     RDKit          3D

 16 17  0  0  0  0  0  0  0  0999 V2000
  531.5693  -37.6898   86.4746 C   0  0  0  0  0  0  0  0  0  0  0  0
  532.0538  -38.1256   87.7819 O   0  0  0  0  0  0  0  0  0  0  0  0
  531.3438  -38.7363   85.3487 C   0  0  0  0  0  0  0  0  0  0  0  0
  530.9850  -38.1394   84.0762 O   0  0  0  0  0  0  0  0  0  0  0  0
  529.8317  -37.2498   84.2033 C   0  0  0  0  0  0  0  0  0  0  0  0
  528.6149  -37.5494   83.3863 N   0  0  0  0  0  0  0  0  0  0  0  0
  527.9996  -38.7271   83.2846 C   0  0  0  0  0  0  0  0  0  0  0  0
  526.8994  -38.5924   82.4805 N   0  0  0  0  0  0  0  0  0  0  0  0
  526.7695  -37.3535   82.0500 C   0  0  0  0  0  0  0  0  0  0  0  0
  525.8635  -36.6640   81.2316 C   0  0  0  0  0  0  0  0  0  0  0  0
  524.8297  -37.1495   80.6675 O   0  0  0  0  0  0  0  0  0  0  0  0
  526.1086  -35.3682   81.0386 N   0  0  0  0  0  0  0  0  0  0  0  0
  527.1492  -34.7431   81.5717 C   0  0  0  0  0  0  0  0  0  0  0  0
  527.3287  -33.4131   81.3359 N   0  0  0  0  0  0  0  0  0  0  0  0
  528.0352  -35.3945   82.3473 N   0  0  0  0  0  0  0  0  0  0  0  0
  527.8735  -36.6981   82.6155 C   0  0  0  0  0  0  0  0  0  0  0  0
  1  2  1  6
  1  3  1  0
  3  4  1  1
  5  4  1  6
  5  6  1  0
  6  7  1  0
  6 16  1  0
  7  8  2  0
  8  9  1  0
  9 10  1  0
  9 16  2  0
 10 11  2  0
 10 12  1  0
 12 13  1  0
 13 14  1  0
 13 15  2  0
 15 16  1  0
M  END
$$$$
