
     RDKit          3D

 16 17  0  0  0  0  0  0  0  0999 V2000
  -71.6517   45.6642   71.6156 C   0  0  0  0  0  0  0  0  0  0  0  0
  -71.5585   44.2074   71.5646 O   0  0  0  0  0  0  0  0  0  0  0  0
  -70.4240   46.4986   72.0733 C   0  0  0  0  0  0  0  0  0  0  0  0
  -69.1554   45.8589   71.7802 O   0  0  0  0  0  0  0  0  0  0  0  0
  -68.0443   46.8066   71.8520 C   0  0  0  0  0  0  0  0  0  0  0  0
  -68.3309   48.1972   72.3237 N   0  0  0  0  0  0  0  0  0  0  0  0
  -67.4590   49.2018   72.4030 C   0  0  0  0  0  0  0  0  0  0  0  0
  -68.1069   50.3270   72.8380 N   0  0  0  0  0  0  0  0  0  0  0  0
  -69.3872   50.0925   73.0453 C   0  0  0  0  0  0  0  0  0  0  0  0
  -70.4898   50.8448   73.4750 C   0  0  0  0  0  0  0  0  0  0  0  0
  -70.4911   52.0810   73.7828 O   0  0  0  0  0  0  0  0  0  0  0  0
  -71.6522   50.1977   73.5551 N   0  0  0  0  0  0  0  0  0  0  0  0
  -71.7847   48.9123   73.2596 C   0  0  0  0  0  0  0  0  0  0  0  0
  -73.0087   48.3216   73.3577 N   0  0  0  0  0  0  0  0  0  0  0  0
  -70.7329   48.1733   72.8602 N   0  0  0  0  0  0  0  0  0  0  0  0
  -69.5207   48.7313   72.7332 C   0  0  0  0  0  0  0  0  0  0  0  0
  1  2  1  6
  1  3  1  0
  3  4  1  1
  5  4  1  6
  5  6  1  0
  6  7  1  0
  6 16  1  0
  7  8  2  0
  8  9  1  0
  9 10  1  0
  9 16  2  0
 10 11  2  0
 10 12  1  0
 12 13  1  0
 13 14  1  0
 13 15  2  0
 15 16  1  0
M  END
$$$$
