
     RDKit          3D

 16 17  0  0  0  0  0  0  0  0999 V2000
 -135.0543  175.1672 -513.7241 C   0  0  0  0  0  0  0  0  0  0  0  0
 -134.9882  174.0496 -512.7861 O   0  0  0  0  0  0  0  0  0  0  0  0
 -133.8824  175.4106 -514.7146 C   0  0  0  0  0  0  0  0  0  0  0  0
 -134.1148  174.8406 -516.0284 O   0  0  0  0  0  0  0  0  0  0  0  0
 -133.0552  173.9065 -516.4058 C   0  0  0  0  0  0  0  0  0  0  0  0
 -133.3928  172.4513 -516.4894 N   0  0  0  0  0  0  0  0  0  0  0  0
 -134.0140  171.7278 -515.5587 C   0  0  0  0  0  0  0  0  0  0  0  0
 -134.1805  170.4491 -516.0190 N   0  0  0  0  0  0  0  0  0  0  0  0
 -133.6875  170.3092 -517.2331 C   0  0  0  0  0  0  0  0  0  0  0  0
 -133.5839  169.2629 -518.1612 C   0  0  0  0  0  0  0  0  0  0  0  0
 -134.0137  168.0729 -518.0134 O   0  0  0  0  0  0  0  0  0  0  0  0
 -132.9856  169.5538 -519.3156 N   0  0  0  0  0  0  0  0  0  0  0  0
 -132.4983  170.7549 -519.5939 C   0  0  0  0  0  0  0  0  0  0  0  0
 -131.9067  170.9785 -520.8010 N   0  0  0  0  0  0  0  0  0  0  0  0
 -132.5766  171.7650 -518.7078 N   0  0  0  0  0  0  0  0  0  0  0  0
 -133.1720  171.5818 -517.5207 C   0  0  0  0  0  0  0  0  0  0  0  0
  1  2  1  6
  1  3  1  0
  3  4  1  1
  5  4  1  6
  5  6  1  0
  6  7  1  0
  6 16  1  0
  7  8  2  0
  8  9  1  0
  9 10  1  0
  9 16  2  0
 10 11  2  0
 10 12  1  0
 12 13  1  0
 13 14  1  0
 13 15  2  0
 15 16  1  0
M  END
$$$$
