
     RDKit          3D

 16 17  0  0  0  0  0  0  0  0999 V2000
  109.5861   41.9368  -81.0379 C   0  0  0  0  0  0  0  0  0  0  0  0
  109.5909   42.2684  -79.6155 O   0  0  0  0  0  0  0  0  0  0  0  0
  110.3537   42.8402  -82.0417 C   0  0  0  0  0  0  0  0  0  0  0  0
  110.7707   44.1063  -81.4694 O   0  0  0  0  0  0  0  0  0  0  0  0
  110.2892   44.2628  -80.0977 C   0  0  0  0  0  0  0  0  0  0  0  0
  111.0563   43.5971  -78.9992 N   0  0  0  0  0  0  0  0  0  0  0  0
  110.5438   42.9031  -77.9836 C   0  0  0  0  0  0  0  0  0  0  0  0
  111.5640   42.4135  -77.2125 N   0  0  0  0  0  0  0  0  0  0  0  0
  112.7394   42.7638  -77.6949 C   0  0  0  0  0  0  0  0  0  0  0  0
  114.0777   42.5525  -77.3329 C   0  0  0  0  0  0  0  0  0  0  0  0
  114.4966   41.8758  -76.3381 O   0  0  0  0  0  0  0  0  0  0  0  0
  114.9982   43.1080  -78.1205 N   0  0  0  0  0  0  0  0  0  0  0  0
  114.6929   43.8326  -79.1877 C   0  0  0  0  0  0  0  0  0  0  0  0
  115.6907   44.3619  -79.9500 N   0  0  0  0  0  0  0  0  0  0  0  0
  113.4132   44.0568  -79.5396 N   0  0  0  0  0  0  0  0  0  0  0  0
  112.4102   43.5313  -78.8220 C   0  0  0  0  0  0  0  0  0  0  0  0
  1  2  1  6
  1  3  1  0
  3  4  1  1
  5  4  1  6
  5  6  1  0
  6  7  1  0
  6 16  1  0
  7  8  2  0
  8  9  1  0
  9 10  1  0
  9 16  2  0
 10 11  2  0
 10 12  1  0
 12 13  1  0
 13 14  1  0
 13 15  2  0
 15 16  1  0
M  END
$$$$
