
     RDKit          3D

 16 17  0  0  0  0  0  0  0  0999 V2000
  246.7648   64.0663  428.0098 C   0  0  0  0  0  0  0  0  0  0  0  0
  247.0373   65.4624  428.3422 O   0  0  0  0  0  0  0  0  0  0  0  0
  246.0871   63.1432  429.0594 C   0  0  0  0  0  0  0  0  0  0  0  0
  246.1750   61.7345  428.7247 O   0  0  0  0  0  0  0  0  0  0  0  0
  244.9243   61.0332  429.0104 C   0  0  0  0  0  0  0  0  0  0  0  0
  244.5928   59.8205  428.1990 N   0  0  0  0  0  0  0  0  0  0  0  0
  244.2458   59.7992  426.9128 C   0  0  0  0  0  0  0  0  0  0  0  0
  244.0639   58.5010  426.5171 N   0  0  0  0  0  0  0  0  0  0  0  0
  244.2855   57.6623  427.5091 C   0  0  0  0  0  0  0  0  0  0  0  0
  244.2527   56.2701  427.6745 C   0  0  0  0  0  0  0  0  0  0  0  0
  243.9801   55.4061  426.7788 O   0  0  0  0  0  0  0  0  0  0  0  0
  244.5500   55.8118  428.8902 N   0  0  0  0  0  0  0  0  0  0  0  0
  244.8542   56.6062  429.9068 C   0  0  0  0  0  0  0  0  0  0  0  0
  245.1552   56.0626  431.1193 N   0  0  0  0  0  0  0  0  0  0  0  0
  244.8752   57.9450  429.7678 N   0  0  0  0  0  0  0  0  0  0  0  0
  244.6047   58.5083  428.5818 C   0  0  0  0  0  0  0  0  0  0  0  0
  1  2  1  6
  1  3  1  0
  3  4  1  1
  5  4  1  6
  5  6  1  0
  6  7  1  0
  6 16  1  0
  7  8  2  0
  8  9  1  0
  9 10  1  0
  9 16  2  0
 10 11  2  0
 10 12  1  0
 12 13  1  0
 13 14  1  0
 13 15  2  0
 15 16  1  0
M  END
$$$$
