
     RDKit          3D

 16 17  0  0  0  0  0  0  0  0999 V2000
   25.2386   90.4684   29.2414 C   0  0  0  0  0  0  0  0  0  0  0  0
   26.3649   90.1884   28.3545 O   0  0  0  0  0  0  0  0  0  0  0  0
   23.9001   89.7035   29.0508 C   0  0  0  0  0  0  0  0  0  0  0  0
   24.0830   88.3065   28.7057 O   0  0  0  0  0  0  0  0  0  0  0  0
   22.9458   87.4923   29.1322 C   0  0  0  0  0  0  0  0  0  0  0  0
   22.0710   88.0181   30.2262 N   0  0  0  0  0  0  0  0  0  0  0  0
   20.7653   88.2709   30.1433 C   0  0  0  0  0  0  0  0  0  0  0  0
   20.3112   88.6983   31.3624 N   0  0  0  0  0  0  0  0  0  0  0  0
   21.2839   88.7314   32.2510 C   0  0  0  0  0  0  0  0  0  0  0  0
   21.3954   89.0729   33.6065 C   0  0  0  0  0  0  0  0  0  0  0  0
   20.4530   89.4608   34.3711 O   0  0  0  0  0  0  0  0  0  0  0  0
   22.6097   88.9666   34.1453 N   0  0  0  0  0  0  0  0  0  0  0  0
   23.6722   88.5712   33.4582 C   0  0  0  0  0  0  0  0  0  0  0  0
   24.8806   88.4791   34.0811 N   0  0  0  0  0  0  0  0  0  0  0  0
   23.5841   88.2543   32.1530 N   0  0  0  0  0  0  0  0  0  0  0  0
   22.4050   88.3143   31.5182 C   0  0  0  0  0  0  0  0  0  0  0  0
  1  2  1  6
  1  3  1  0
  3  4  1  1
  5  4  1  6
  5  6  1  0
  6  7  1  0
  6 16  1  0
  7  8  2  0
  8  9  1  0
  9 10  1  0
  9 16  2  0
 10 11  2  0
 10 12  1  0
 12 13  1  0
 13 14  1  0
 13 15  2  0
 15 16  1  0
M  END
$$$$
