
     RDKit          3D

 16 17  0  0  0  0  0  0  0  0999 V2000
  -64.7296 -118.7676   58.8257 C   0  0  0  0  0  0  0  0  0  0  0  0
  -65.5278 -117.7445   58.1551 O   0  0  0  0  0  0  0  0  0  0  0  0
  -63.2255 -118.5053   59.1122 C   0  0  0  0  0  0  0  0  0  0  0  0
  -62.4045 -119.6956   58.9970 O   0  0  0  0  0  0  0  0  0  0  0  0
  -62.4668 -120.5131   60.2077 C   0  0  0  0  0  0  0  0  0  0  0  0
  -63.7446 -121.2294   60.5116 N   0  0  0  0  0  0  0  0  0  0  0  0
  -64.8121 -121.3153   59.7187 C   0  0  0  0  0  0  0  0  0  0  0  0
  -65.7640 -122.0893   60.3269 N   0  0  0  0  0  0  0  0  0  0  0  0
  -65.3511 -122.5208   61.5019 C   0  0  0  0  0  0  0  0  0  0  0  0
  -65.8848 -123.3198   62.5232 C   0  0  0  0  0  0  0  0  0  0  0  0
  -67.0267 -123.8848   62.5260 O   0  0  0  0  0  0  0  0  0  0  0  0
  -65.1089 -123.5134   63.5893 N   0  0  0  0  0  0  0  0  0  0  0  0
  -63.8992 -122.9842   63.7073 C   0  0  0  0  0  0  0  0  0  0  0  0
  -63.1610 -123.2347   64.8249 N   0  0  0  0  0  0  0  0  0  0  0  0
  -63.3791 -122.2031   62.7424 N   0  0  0  0  0  0  0  0  0  0  0  0
  -64.0724 -121.9563   61.6220 C   0  0  0  0  0  0  0  0  0  0  0  0
  1  2  1  6
  1  3  1  0
  3  4  1  1
  5  4  1  6
  5  6  1  0
  6  7  1  0
  6 16  1  0
  7  8  2  0
  8  9  1  0
  9 10  1  0
  9 16  2  0
 10 11  2  0
 10 12  1  0
 12 13  1  0
 13 14  1  0
 13 15  2  0
 15 16  1  0
M  END
$$$$
