
     RDKit          3D

 16 17  0  0  0  0  0  0  0  0999 V2000
  -56.8557  123.0894  125.5501 C   0  0  0  0  0  0  0  0  0  0  0  0
  -57.6403  122.0150  126.1532 O   0  0  0  0  0  0  0  0  0  0  0  0
  -57.5662  124.3834  125.0668 C   0  0  0  0  0  0  0  0  0  0  0  0
  -56.8161  125.1054  124.0567 O   0  0  0  0  0  0  0  0  0  0  0  0
  -55.5117  125.5354  124.5582 C   0  0  0  0  0  0  0  0  0  0  0  0
  -55.1171  125.1270  125.9424 N   0  0  0  0  0  0  0  0  0  0  0  0
  -55.5160  125.6955  127.0797 C   0  0  0  0  0  0  0  0  0  0  0  0
  -54.9760  125.0140  128.1375 N   0  0  0  0  0  0  0  0  0  0  0  0
  -54.2321  124.0060  127.7281 C   0  0  0  0  0  0  0  0  0  0  0  0
  -53.4678  123.0055  128.3455 C   0  0  0  0  0  0  0  0  0  0  0  0
  -53.3230  122.8261  129.5984 O   0  0  0  0  0  0  0  0  0  0  0  0
  -52.8430  122.1528  127.5337 N   0  0  0  0  0  0  0  0  0  0  0  0
  -52.9159  122.2292  126.2123 C   0  0  0  0  0  0  0  0  0  0  0  0
  -52.2553  121.3149  125.4478 N   0  0  0  0  0  0  0  0  0  0  0  0
  -53.6332  123.1926  125.6049 N   0  0  0  0  0  0  0  0  0  0  0  0
  -54.3113  124.0931  126.3302 C   0  0  0  0  0  0  0  0  0  0  0  0
  1  2  1  6
  1  3  1  0
  3  4  1  1
  5  4  1  6
  5  6  1  0
  6  7  1  0
  6 16  1  0
  7  8  2  0
  8  9  1  0
  9 10  1  0
  9 16  2  0
 10 11  2  0
 10 12  1  0
 12 13  1  0
 13 14  1  0
 13 15  2  0
 15 16  1  0
M  END
$$$$
