
     RDKit          3D

 16 17  0  0  0  0  0  0  0  0999 V2000
 -508.0598  425.5812  482.9518 C   0  0  0  0  0  0  0  0  0  0  0  0
 -507.3303  426.8416  482.8369 O   0  0  0  0  0  0  0  0  0  0  0  0
 -507.9010  424.7137  484.2303 C   0  0  0  0  0  0  0  0  0  0  0  0
 -507.2223  423.4547  483.9875 O   0  0  0  0  0  0  0  0  0  0  0  0
 -506.0999  423.6164  483.0645 C   0  0  0  0  0  0  0  0  0  0  0  0
 -505.1031  422.5053  482.9623 N   0  0  0  0  0  0  0  0  0  0  0  0
 -505.3297  421.2142  483.2010 C   0  0  0  0  0  0  0  0  0  0  0  0
 -504.1844  420.5038  482.9583 N   0  0  0  0  0  0  0  0  0  0  0  0
 -503.2062  421.2929  482.5617 C   0  0  0  0  0  0  0  0  0  0  0  0
 -501.8661  421.1214  482.1863 C   0  0  0  0  0  0  0  0  0  0  0  0
 -501.2301  420.0188  482.1272 O   0  0  0  0  0  0  0  0  0  0  0  0
 -501.2010  422.2251  481.8465 N   0  0  0  0  0  0  0  0  0  0  0  0
 -501.7495  423.4320  481.8630 C   0  0  0  0  0  0  0  0  0  0  0  0
 -501.0073  424.5135  481.4935 N   0  0  0  0  0  0  0  0  0  0  0  0
 -503.0298  423.6147  482.2351 N   0  0  0  0  0  0  0  0  0  0  0  0
 -503.7913  422.5677  482.5829 C   0  0  0  0  0  0  0  0  0  0  0  0
  1  2  1  6
  1  3  1  0
  3  4  1  1
  5  4  1  6
  5  6  1  0
  6  7  1  0
  6 16  1  0
  7  8  2  0
  8  9  1  0
  9 10  1  0
  9 16  2  0
 10 11  2  0
 10 12  1  0
 12 13  1  0
 13 14  1  0
 13 15  2  0
 15 16  1  0
M  END
$$$$
