
     RDKit          3D

 16 17  0  0  0  0  0  0  0  0999 V2000
 -110.5631   93.9148  140.0806 C   0  0  0  0  0  0  0  0  0  0  0  0
 -109.2256   94.2344  140.5731 O   0  0  0  0  0  0  0  0  0  0  0  0
 -110.8164   93.8126  138.5514 C   0  0  0  0  0  0  0  0  0  0  0  0
 -109.8343   92.9977  137.8616 O   0  0  0  0  0  0  0  0  0  0  0  0
 -109.8337   93.2567  136.4226 C   0  0  0  0  0  0  0  0  0  0  0  0
 -110.0492   92.1015  135.4966 N   0  0  0  0  0  0  0  0  0  0  0  0
 -109.4714   91.9198  134.3096 C   0  0  0  0  0  0  0  0  0  0  0  0
 -109.8881   90.7260  133.7840 N   0  0  0  0  0  0  0  0  0  0  0  0
 -110.7251   90.1114  134.5957 C   0  0  0  0  0  0  0  0  0  0  0  0
 -111.4390   88.9046  134.5775 C   0  0  0  0  0  0  0  0  0  0  0  0
 -111.4156   88.0232  133.6579 O   0  0  0  0  0  0  0  0  0  0  0  0
 -112.2073   88.6558  135.6378 N   0  0  0  0  0  0  0  0  0  0  0  0
 -112.3159   89.4901  136.6622 C   0  0  0  0  0  0  0  0  0  0  0  0
 -113.1156   89.1622  137.7155 N   0  0  0  0  0  0  0  0  0  0  0  0
 -111.6487   90.6589  136.6875 N   0  0  0  0  0  0  0  0  0  0  0  0
 -110.8376   90.9993  135.6760 C   0  0  0  0  0  0  0  0  0  0  0  0
  1  2  1  6
  1  3  1  0
  3  4  1  1
  5  4  1  6
  5  6  1  0
  6  7  1  0
  6 16  1  0
  7  8  2  0
  8  9  1  0
  9 10  1  0
  9 16  2  0
 10 11  2  0
 10 12  1  0
 12 13  1  0
 13 14  1  0
 13 15  2  0
 15 16  1  0
M  END
$$$$
