
     RDKit          3D

 16 17  0  0  0  0  0  0  0  0999 V2000
 -232.2035    4.0846  164.6472 C   0  0  0  0  0  0  0  0  0  0  0  0
 -231.4222    4.9795  165.4971 O   0  0  0  0  0  0  0  0  0  0  0  0
 -233.7081    3.8501  164.9544 C   0  0  0  0  0  0  0  0  0  0  0  0
 -234.5519    3.9279  163.7769 O   0  0  0  0  0  0  0  0  0  0  0  0
 -235.3399    5.1594  163.7587 C   0  0  0  0  0  0  0  0  0  0  0  0
 -234.7059    6.3960  163.2042 N   0  0  0  0  0  0  0  0  0  0  0  0
 -235.1619    7.6421  163.3257 C   0  0  0  0  0  0  0  0  0  0  0  0
 -234.2852    8.5033  162.7218 N   0  0  0  0  0  0  0  0  0  0  0  0
 -233.2583    7.8578  162.2063 C   0  0  0  0  0  0  0  0  0  0  0  0
 -232.0993    8.2129  161.5011 C   0  0  0  0  0  0  0  0  0  0  0  0
 -231.7384    9.3916  161.1794 O   0  0  0  0  0  0  0  0  0  0  0  0
 -231.2932    7.2127  161.1461 N   0  0  0  0  0  0  0  0  0  0  0  0
 -231.5532    5.9428  161.4235 C   0  0  0  0  0  0  0  0  0  0  0  0
 -230.6759    4.9755  161.0346 N   0  0  0  0  0  0  0  0  0  0  0  0
 -232.6687    5.5848  162.0865 N   0  0  0  0  0  0  0  0  0  0  0  0
 -233.5398    6.5154  162.5009 C   0  0  0  0  0  0  0  0  0  0  0  0
  1  2  1  6
  1  3  1  0
  3  4  1  1
  5  4  1  6
  5  6  1  0
  6  7  1  0
  6 16  1  0
  7  8  2  0
  8  9  1  0
  9 10  1  0
  9 16  2  0
 10 11  2  0
 10 12  1  0
 12 13  1  0
 13 14  1  0
 13 15  2  0
 15 16  1  0
M  END
$$$$
