
     RDKit          3D

 16 17  0  0  0  0  0  0  0  0999 V2000
  188.5796  353.7698 -158.5234 C   0  0  0  0  0  0  0  0  0  0  0  0
  188.7769  354.1710 -157.1328 O   0  0  0  0  0  0  0  0  0  0  0  0
  189.4912  354.3626 -159.6326 C   0  0  0  0  0  0  0  0  0  0  0  0
  190.4799  355.2944 -159.1237 O   0  0  0  0  0  0  0  0  0  0  0  0
  191.7865  354.6586 -158.9607 C   0  0  0  0  0  0  0  0  0  0  0  0
  193.0042  355.4370 -159.3476 N   0  0  0  0  0  0  0  0  0  0  0  0
  193.7110  355.2965 -160.4685 C   0  0  0  0  0  0  0  0  0  0  0  0
  194.7253  356.2159 -160.4797 N   0  0  0  0  0  0  0  0  0  0  0  0
  194.7056  356.9640 -159.3948 C   0  0  0  0  0  0  0  0  0  0  0  0
  195.4729  358.0240 -158.8911 C   0  0  0  0  0  0  0  0  0  0  0  0
  196.4753  358.5705 -159.4566 O   0  0  0  0  0  0  0  0  0  0  0  0
  195.1030  358.5119 -157.7073 N   0  0  0  0  0  0  0  0  0  0  0  0
  194.0759  358.0338 -157.0188 C   0  0  0  0  0  0  0  0  0  0  0  0
  193.7530  358.5909 -155.8178 N   0  0  0  0  0  0  0  0  0  0  0  0
  193.3391  357.0071 -157.4819 N   0  0  0  0  0  0  0  0  0  0  0  0
  193.6190  356.4526 -158.6698 C   0  0  0  0  0  0  0  0  0  0  0  0
  1  2  1  6
  1  3  1  0
  3  4  1  1
  5  4  1  6
  5  6  1  0
  6  7  1  0
  6 16  1  0
  7  8  2  0
  8  9  1  0
  9 10  1  0
  9 16  2  0
 10 11  2  0
 10 12  1  0
 12 13  1  0
 13 14  1  0
 13 15  2  0
 15 16  1  0
M  END
$$$$
