
     RDKit          3D

 16 17  0  0  0  0  0  0  0  0999 V2000
 -363.6313  422.7842  357.3948 C   0  0  0  0  0  0  0  0  0  0  0  0
 -362.6013  423.7912  357.1532 O   0  0  0  0  0  0  0  0  0  0  0  0
 -363.4047  421.6958  358.4796 C   0  0  0  0  0  0  0  0  0  0  0  0
 -363.1960  422.2445  359.8062 O   0  0  0  0  0  0  0  0  0  0  0  0
 -364.4588  422.6250  360.4376 C   0  0  0  0  0  0  0  0  0  0  0  0
 -364.4786  423.8506  361.2957 N   0  0  0  0  0  0  0  0  0  0  0  0
 -363.5569  424.2062  362.1896 C   0  0  0  0  0  0  0  0  0  0  0  0
 -363.9050  425.4103  362.7410 N   0  0  0  0  0  0  0  0  0  0  0  0
 -365.0335  425.8618  362.2313 C   0  0  0  0  0  0  0  0  0  0  0  0
 -365.8334  426.9995  362.4115 C   0  0  0  0  0  0  0  0  0  0  0  0
 -365.6006  427.9732  363.1996 O   0  0  0  0  0  0  0  0  0  0  0  0
 -366.9398  427.0678  361.6718 N   0  0  0  0  0  0  0  0  0  0  0  0
 -367.2930  426.1226  360.8123 C   0  0  0  0  0  0  0  0  0  0  0  0
 -368.4357  426.2674  360.0844 N   0  0  0  0  0  0  0  0  0  0  0  0
 -366.5438  425.0179  360.6390 N   0  0  0  0  0  0  0  0  0  0  0  0
 -365.4031  424.8571  361.3247 C   0  0  0  0  0  0  0  0  0  0  0  0
  1  2  1  6
  1  3  1  0
  3  4  1  1
  5  4  1  6
  5  6  1  0
  6  7  1  0
  6 16  1  0
  7  8  2  0
  8  9  1  0
  9 10  1  0
  9 16  2  0
 10 11  2  0
 10 12  1  0
 12 13  1  0
 13 14  1  0
 13 15  2  0
 15 16  1  0
M  END
$$$$
