
     RDKit          3D

 16 17  0  0  0  0  0  0  0  0999 V2000
 -200.4279 -110.7668   -0.0666 C   0  0  0  0  0  0  0  0  0  0  0  0
 -201.3387 -111.7301    0.5465 O   0  0  0  0  0  0  0  0  0  0  0  0
 -198.9193 -110.7910    0.3029 C   0  0  0  0  0  0  0  0  0  0  0  0
 -198.6577 -111.3758    1.6044 O   0  0  0  0  0  0  0  0  0  0  0  0
 -199.2345 -112.7144    1.7200 C   0  0  0  0  0  0  0  0  0  0  0  0
 -198.5303 -113.8481    1.0436 N   0  0  0  0  0  0  0  0  0  0  0  0
 -197.9686 -114.8995    1.6393 C   0  0  0  0  0  0  0  0  0  0  0  0
 -197.4636 -115.7411    0.6846 N   0  0  0  0  0  0  0  0  0  0  0  0
 -197.6801 -115.2742   -0.5287 C   0  0  0  0  0  0  0  0  0  0  0  0
 -197.3970 -115.6996   -1.8345 C   0  0  0  0  0  0  0  0  0  0  0  0
 -196.8051 -116.7768   -2.1698 O   0  0  0  0  0  0  0  0  0  0  0  0
 -197.8017 -114.8973   -2.8187 N   0  0  0  0  0  0  0  0  0  0  0  0
 -198.4310 -113.7507   -2.6028 C   0  0  0  0  0  0  0  0  0  0  0  0
 -198.8217 -112.9874   -3.6618 N   0  0  0  0  0  0  0  0  0  0  0  0
 -198.6966 -113.3216   -1.3550 N   0  0  0  0  0  0  0  0  0  0  0  0
 -198.3439 -114.0608   -0.2938 C   0  0  0  0  0  0  0  0  0  0  0  0
  1  2  1  6
  1  3  1  0
  3  4  1  1
  5  4  1  6
  5  6  1  0
  6  7  1  0
  6 16  1  0
  7  8  2  0
  8  9  1  0
  9 10  1  0
  9 16  2  0
 10 11  2  0
 10 12  1  0
 12 13  1  0
 13 14  1  0
 13 15  2  0
 15 16  1  0
M  END
$$$$
