
     RDKit          3D

 16 17  0  0  0  0  0  0  0  0999 V2000
   65.1496  -25.7002   44.3171 C   0  0  0  0  0  0  0  0  0  0  0  0
   63.9577  -25.7446   43.4738 O   0  0  0  0  0  0  0  0  0  0  0  0
   66.1069  -26.9227   44.3618 C   0  0  0  0  0  0  0  0  0  0  0  0
   65.8096  -27.9201   43.3514 O   0  0  0  0  0  0  0  0  0  0  0  0
   64.9398  -27.3850   42.3049 C   0  0  0  0  0  0  0  0  0  0  0  0
   64.1245  -26.1698   42.6166 N   0  0  0  0  0  0  0  0  0  0  0  0
   63.1143  -26.0949   43.4823 C   0  0  0  0  0  0  0  0  0  0  0  0
   62.6495  -24.8074   43.5216 N   0  0  0  0  0  0  0  0  0  0  0  0
   63.3298  -24.0276   42.7055 C   0  0  0  0  0  0  0  0  0  0  0  0
   63.2965  -22.6713   42.3510 C   0  0  0  0  0  0  0  0  0  0  0  0
   62.5071  -21.7852   42.8146 O   0  0  0  0  0  0  0  0  0  0  0  0
   64.1916  -22.2740   41.4471 N   0  0  0  0  0  0  0  0  0  0  0  0
   65.0700  -23.0966   40.8912 C   0  0  0  0  0  0  0  0  0  0  0  0
   65.9607  -22.6143   39.9797 N   0  0  0  0  0  0  0  0  0  0  0  0
   65.1047  -24.4038   41.2099 N   0  0  0  0  0  0  0  0  0  0  0  0
   64.2557  -24.9033   42.1191 C   0  0  0  0  0  0  0  0  0  0  0  0
  1  2  1  6
  1  3  1  0
  3  4  1  1
  5  4  1  6
  5  6  1  0
  6  7  1  0
  6 16  1  0
  7  8  2  0
  8  9  1  0
  9 10  1  0
  9 16  2  0
 10 11  2  0
 10 12  1  0
 12 13  1  0
 13 14  1  0
 13 15  2  0
 15 16  1  0
M  END
$$$$
