
     RDKit          3D

 16 17  0  0  0  0  0  0  0  0999 V2000
   21.5870  -71.3449  128.0000 C   0  0  0  0  0  0  0  0  0  0  0  0
   22.6587  -70.9458  128.9087 O   0  0  0  0  0  0  0  0  0  0  0  0
   21.6319  -72.7424  127.3233 C   0  0  0  0  0  0  0  0  0  0  0  0
   20.4088  -73.0769  126.6187 O   0  0  0  0  0  0  0  0  0  0  0  0
   19.2832  -72.2635  127.0761 C   0  0  0  0  0  0  0  0  0  0  0  0
   19.5433  -70.8340  127.4330 N   0  0  0  0  0  0  0  0  0  0  0  0
   19.6144  -69.8070  126.5868 C   0  0  0  0  0  0  0  0  0  0  0  0
   19.8232  -68.6538  127.2949 N   0  0  0  0  0  0  0  0  0  0  0  0
   19.8887  -68.8919  128.5895 C   0  0  0  0  0  0  0  0  0  0  0  0
   20.0778  -68.1200  129.7449 C   0  0  0  0  0  0  0  0  0  0  0  0
   20.2322  -66.8565  129.7961 O   0  0  0  0  0  0  0  0  0  0  0  0
   20.0829  -68.7800  130.9028 N   0  0  0  0  0  0  0  0  0  0  0  0
   19.9290  -70.0940  130.9854 C   0  0  0  0  0  0  0  0  0  0  0  0
   19.9371  -70.6973  132.2072 N   0  0  0  0  0  0  0  0  0  0  0  0
   19.7615  -70.8503  129.8845 N   0  0  0  0  0  0  0  0  0  0  0  0
   19.7274  -70.2831  128.6704 C   0  0  0  0  0  0  0  0  0  0  0  0
  1  2  1  6
  1  3  1  0
  3  4  1  1
  5  4  1  6
  5  6  1  0
  6  7  1  0
  6 16  1  0
  7  8  2  0
  8  9  1  0
  9 10  1  0
  9 16  2  0
 10 11  2  0
 10 12  1  0
 12 13  1  0
 13 14  1  0
 13 15  2  0
 15 16  1  0
M  END
$$$$
