
     RDKit          3D

 16 17  0  0  0  0  0  0  0  0999 V2000
  570.7516  504.8095 -211.4605 C   0  0  0  0  0  0  0  0  0  0  0  0
  570.5375  504.3013 -210.1078 O   0  0  0  0  0  0  0  0  0  0  0  0
  570.0757  506.1370 -211.9001 C   0  0  0  0  0  0  0  0  0  0  0  0
  568.6266  506.0690 -211.9009 O   0  0  0  0  0  0  0  0  0  0  0  0
  568.1515  504.6898 -212.0031 C   0  0  0  0  0  0  0  0  0  0  0  0
  568.1458  503.8506 -210.7646 N   0  0  0  0  0  0  0  0  0  0  0  0
  567.1137  503.1601 -210.2808 C   0  0  0  0  0  0  0  0  0  0  0  0
  567.5107  502.4849 -209.1577 N   0  0  0  0  0  0  0  0  0  0  0  0
  568.7811  502.7090 -208.8879 C   0  0  0  0  0  0  0  0  0  0  0  0
  569.6866  502.2959 -207.9000 C   0  0  0  0  0  0  0  0  0  0  0  0
  569.4459  501.4997 -206.9354 O   0  0  0  0  0  0  0  0  0  0  0  0
  570.9255  502.7788 -207.9942 N   0  0  0  0  0  0  0  0  0  0  0  0
  571.3042  503.6125 -208.9527 C   0  0  0  0  0  0  0  0  0  0  0  0
  572.5917  504.0573 -208.9876 N   0  0  0  0  0  0  0  0  0  0  0  0
  570.4428  504.0298 -209.8989 N   0  0  0  0  0  0  0  0  0  0  0  0
  569.1757  503.5925 -209.9035 C   0  0  0  0  0  0  0  0  0  0  0  0
  1  2  1  6
  1  3  1  0
  3  4  1  1
  5  4  1  6
  5  6  1  0
  6  7  1  0
  6 16  1  0
  7  8  2  0
  8  9  1  0
  9 10  1  0
  9 16  2  0
 10 11  2  0
 10 12  1  0
 12 13  1  0
 13 14  1  0
 13 15  2  0
 15 16  1  0
M  END
$$$$
