
     RDKit          3D

 16 17  0  0  0  0  0  0  0  0999 V2000
 -151.6686  108.9315   48.8305 C   0  0  0  0  0  0  0  0  0  0  0  0
 -150.6674  109.5641   47.9754 O   0  0  0  0  0  0  0  0  0  0  0  0
 -151.8011  109.3702   50.3148 C   0  0  0  0  0  0  0  0  0  0  0  0
 -152.3125  108.3227   51.1780 O   0  0  0  0  0  0  0  0  0  0  0  0
 -153.0076  108.8733   52.3406 C   0  0  0  0  0  0  0  0  0  0  0  0
 -153.6519  107.9190   53.2962 N   0  0  0  0  0  0  0  0  0  0  0  0
 -153.2698  107.6743   54.5490 C   0  0  0  0  0  0  0  0  0  0  0  0
 -154.1329  106.7747   55.1155 N   0  0  0  0  0  0  0  0  0  0  0  0
 -155.0790  106.4206   54.2690 C   0  0  0  0  0  0  0  0  0  0  0  0
 -156.1892  105.5648   54.3036 C   0  0  0  0  0  0  0  0  0  0  0  0
 -156.5789  104.8673   55.2960 O   0  0  0  0  0  0  0  0  0  0  0  0
 -156.9120  105.4881   53.1864 N   0  0  0  0  0  0  0  0  0  0  0  0
 -156.6145  106.1655   52.0864 C   0  0  0  0  0  0  0  0  0  0  0  0
 -157.4067  106.0417   50.9847 N   0  0  0  0  0  0  0  0  0  0  0  0
 -155.5437  106.9793   52.0329 N   0  0  0  0  0  0  0  0  0  0  0  0
 -154.7580  107.1384   53.1073 C   0  0  0  0  0  0  0  0  0  0  0  0
  1  2  1  6
  1  3  1  0
  3  4  1  1
  5  4  1  6
  5  6  1  0
  6  7  1  0
  6 16  1  0
  7  8  2  0
  8  9  1  0
  9 10  1  0
  9 16  2  0
 10 11  2  0
 10 12  1  0
 12 13  1  0
 13 14  1  0
 13 15  2  0
 15 16  1  0
M  END
$$$$
