
     RDKit          3D

 16 17  0  0  0  0  0  0  0  0999 V2000
  395.0860   53.5399  798.7905 C   0  0  0  0  0  0  0  0  0  0  0  0
  395.4166   54.8789  798.3085 O   0  0  0  0  0  0  0  0  0  0  0  0
  393.5981   53.1352  798.9794 C   0  0  0  0  0  0  0  0  0  0  0  0
  392.7585   54.2317  799.4222 O   0  0  0  0  0  0  0  0  0  0  0  0
  391.3645   54.0375  799.0253 C   0  0  0  0  0  0  0  0  0  0  0  0
  390.6017   52.9127  799.6511 N   0  0  0  0  0  0  0  0  0  0  0  0
  389.8865   52.9693  800.7740 C   0  0  0  0  0  0  0  0  0  0  0  0
  389.3021   51.7514  800.9974 N   0  0  0  0  0  0  0  0  0  0  0  0
  389.6111   50.8906  800.0482 C   0  0  0  0  0  0  0  0  0  0  0  0
  389.3077   49.5501  799.7698 C   0  0  0  0  0  0  0  0  0  0  0  0
  388.5587   48.7831  800.4584 O   0  0  0  0  0  0  0  0  0  0  0  0
  389.8509   49.0378  798.6660 N   0  0  0  0  0  0  0  0  0  0  0  0
  390.6449   49.7321  797.8632 C   0  0  0  0  0  0  0  0  0  0  0  0
  391.1563   49.1412  796.7467 N   0  0  0  0  0  0  0  0  0  0  0  0
  390.9573   51.0148  798.1249 N   0  0  0  0  0  0  0  0  0  0  0  0
  390.4524   51.6297  799.2036 C   0  0  0  0  0  0  0  0  0  0  0  0
  1  2  1  6
  1  3  1  0
  3  4  1  1
  5  4  1  6
  5  6  1  0
  6  7  1  0
  6 16  1  0
  7  8  2  0
  8  9  1  0
  9 10  1  0
  9 16  2  0
 10 11  2  0
 10 12  1  0
 12 13  1  0
 13 14  1  0
 13 15  2  0
 15 16  1  0
M  END
$$$$
