
     RDKit          3D

 16 17  0  0  0  0  0  0  0  0999 V2000
   11.1956   85.9897   -5.0604 C   0  0  0  0  0  0  0  0  0  0  0  0
   12.1947   86.9143   -4.5306 O   0  0  0  0  0  0  0  0  0  0  0  0
   10.0103   86.5368   -5.9024 C   0  0  0  0  0  0  0  0  0  0  0  0
    8.9817   85.5456   -6.1549 O   0  0  0  0  0  0  0  0  0  0  0  0
    8.6349   85.4778   -7.5737 C   0  0  0  0  0  0  0  0  0  0  0  0
    7.2585   85.0229   -7.9438 N   0  0  0  0  0  0  0  0  0  0  0  0
    6.9334   84.2371   -8.9697 C   0  0  0  0  0  0  0  0  0  0  0  0
    5.5832   84.0101   -8.9529 N   0  0  0  0  0  0  0  0  0  0  0  0
    5.0070   84.6239   -7.9388 C   0  0  0  0  0  0  0  0  0  0  0  0
    3.6995   84.7386   -7.4452 C   0  0  0  0  0  0  0  0  0  0  0  0
    2.6558   84.1897   -7.9273 O   0  0  0  0  0  0  0  0  0  0  0  0
    3.5426   85.4886   -6.3547 N   0  0  0  0  0  0  0  0  0  0  0  0
    4.5484   86.1103   -5.7554 C   0  0  0  0  0  0  0  0  0  0  0  0
    4.3107   86.8533   -4.6382 N   0  0  0  0  0  0  0  0  0  0  0  0
    5.8065   86.0220   -6.2258 N   0  0  0  0  0  0  0  0  0  0  0  0
    6.0751   85.2810   -7.3101 C   0  0  0  0  0  0  0  0  0  0  0  0
  1  2  1  6
  1  3  1  0
  3  4  1  1
  5  4  1  6
  5  6  1  0
  6  7  1  0
  6 16  1  0
  7  8  2  0
  8  9  1  0
  9 10  1  0
  9 16  2  0
 10 11  2  0
 10 12  1  0
 12 13  1  0
 13 14  1  0
 13 15  2  0
 15 16  1  0
M  END
$$$$
