
     RDKit          3D

 16 17  0  0  0  0  0  0  0  0999 V2000
  128.9206   31.5286  202.0801 C   0  0  0  0  0  0  0  0  0  0  0  0
  128.2449   32.7213  202.5844 O   0  0  0  0  0  0  0  0  0  0  0  0
  128.7799   31.1392  200.5829 C   0  0  0  0  0  0  0  0  0  0  0  0
  127.5979   30.3450  200.3064 O   0  0  0  0  0  0  0  0  0  0  0  0
  126.3725   31.0618  200.6566 C   0  0  0  0  0  0  0  0  0  0  0  0
  125.2984   30.3133  201.3808 N   0  0  0  0  0  0  0  0  0  0  0  0
  124.0147   30.2352  201.0319 C   0  0  0  0  0  0  0  0  0  0  0  0
  123.3559   29.4247  201.9173 N   0  0  0  0  0  0  0  0  0  0  0  0
  124.1730   28.9617  202.8420 C   0  0  0  0  0  0  0  0  0  0  0  0
  124.0548   28.1197  203.9571 C   0  0  0  0  0  0  0  0  0  0  0  0
  122.9960   27.5351  204.3573 O   0  0  0  0  0  0  0  0  0  0  0  0
  125.1687   27.9043  204.6564 N   0  0  0  0  0  0  0  0  0  0  0  0
  126.3351   28.4505  204.3423 C   0  0  0  0  0  0  0  0  0  0  0  0
  127.4330   28.1759  205.1012 N   0  0  0  0  0  0  0  0  0  0  0  0
  126.4614   29.2724  203.2840 N   0  0  0  0  0  0  0  0  0  0  0  0
  125.4042   29.5442  202.5060 C   0  0  0  0  0  0  0  0  0  0  0  0
  1  2  1  6
  1  3  1  0
  3  4  1  1
  5  4  1  6
  5  6  1  0
  6  7  1  0
  6 16  1  0
  7  8  2  0
  8  9  1  0
  9 10  1  0
  9 16  2  0
 10 11  2  0
 10 12  1  0
 12 13  1  0
 13 14  1  0
 13 15  2  0
 15 16  1  0
M  END
$$$$
