
     RDKit          3D

 16 17  0  0  0  0  0  0  0  0999 V2000
 -110.1309  -47.2558   46.9275 C   0  0  0  0  0  0  0  0  0  0  0  0
 -109.8321  -48.6856   46.9284 O   0  0  0  0  0  0  0  0  0  0  0  0
 -110.3980  -46.5244   48.2716 C   0  0  0  0  0  0  0  0  0  0  0  0
 -111.8094  -46.3578   48.5622 O   0  0  0  0  0  0  0  0  0  0  0  0
 -112.0272  -45.4058   49.6505 C   0  0  0  0  0  0  0  0  0  0  0  0
 -112.3862  -45.9444   50.9993 N   0  0  0  0  0  0  0  0  0  0  0  0
 -113.5675  -46.4413   51.3647 C   0  0  0  0  0  0  0  0  0  0  0  0
 -113.4928  -46.8723   52.6623 N   0  0  0  0  0  0  0  0  0  0  0  0
 -112.2899  -46.6759   53.1637 C   0  0  0  0  0  0  0  0  0  0  0  0
 -111.6631  -46.9152   54.3950 C   0  0  0  0  0  0  0  0  0  0  0  0
 -112.1885  -47.4580   55.4208 O   0  0  0  0  0  0  0  0  0  0  0  0
 -110.3859  -46.5463   54.4902 N   0  0  0  0  0  0  0  0  0  0  0  0
 -109.7236  -45.9746   53.4944 C   0  0  0  0  0  0  0  0  0  0  0  0
 -108.4155  -45.6328   53.6645 N   0  0  0  0  0  0  0  0  0  0  0  0
 -110.3155  -45.7248   52.3116 N   0  0  0  0  0  0  0  0  0  0  0  0
 -111.5947  -46.0693   52.1068 C   0  0  0  0  0  0  0  0  0  0  0  0
  1  2  1  6
  1  3  1  0
  3  4  1  1
  5  4  1  6
  5  6  1  0
  6  7  1  0
  6 16  1  0
  7  8  2  0
  8  9  1  0
  9 10  1  0
  9 16  2  0
 10 11  2  0
 10 12  1  0
 12 13  1  0
 13 14  1  0
 13 15  2  0
 15 16  1  0
M  END
$$$$
