
     RDKit          3D

 16 17  0  0  0  0  0  0  0  0999 V2000
 -320.7217  459.3734  203.8171 C   0  0  0  0  0  0  0  0  0  0  0  0
 -320.7064  458.0836  203.1315 O   0  0  0  0  0  0  0  0  0  0  0  0
 -319.9383  460.5735  203.2177 C   0  0  0  0  0  0  0  0  0  0  0  0
 -320.6985  461.3188  202.2326 O   0  0  0  0  0  0  0  0  0  0  0  0
 -320.7785  460.6040  200.9596 C   0  0  0  0  0  0  0  0  0  0  0  0
 -321.1333  459.1508  200.9863 N   0  0  0  0  0  0  0  0  0  0  0  0
 -322.2690  458.6051  200.5530 C   0  0  0  0  0  0  0  0  0  0  0  0
 -322.2022  457.2458  200.7051 N   0  0  0  0  0  0  0  0  0  0  0  0
 -321.0487  456.8784  201.2256 C   0  0  0  0  0  0  0  0  0  0  0  0
 -320.4509  455.6623  201.5868 C   0  0  0  0  0  0  0  0  0  0  0  0
 -320.9575  454.5004  201.4579 O   0  0  0  0  0  0  0  0  0  0  0  0
 -319.2253  455.7363  202.1045 N   0  0  0  0  0  0  0  0  0  0  0  0
 -318.5871  456.8838  202.2874 C   0  0  0  0  0  0  0  0  0  0  0  0
 -317.3309  456.8787  202.8151 N   0  0  0  0  0  0  0  0  0  0  0  0
 -319.1533  458.0601  201.9598 N   0  0  0  0  0  0  0  0  0  0  0  0
 -320.3789  458.0959  201.4186 C   0  0  0  0  0  0  0  0  0  0  0  0
  1  2  1  6
  1  3  1  0
  3  4  1  1
  5  4  1  6
  5  6  1  0
  6  7  1  0
  6 16  1  0
  7  8  2  0
  8  9  1  0
  9 10  1  0
  9 16  2  0
 10 11  2  0
 10 12  1  0
 12 13  1  0
 13 14  1  0
 13 15  2  0
 15 16  1  0
M  END
$$$$
