
     RDKit          3D

  9 10  0  0  0  0  0  0  0  0999 V2000
 1489.8865 -566.5737  894.5198 C   0  0  0  0  0  0  0  0  0  0  0  0
 1490.3683 -566.3185  895.8157 C   0  0  0  0  0  0  0  0  0  0  0  0
 1491.1118 -565.1578  896.0377 C   0  0  0  0  0  0  0  0  0  0  0  0
 1491.3578 -564.2883  894.9886 C   0  0  0  0  0  0  0  0  0  0  0  0
 1490.8771 -564.5604  893.7137 C   0  0  0  0  0  0  0  0  0  0  0  0
 1490.1367 -565.7054  893.4619 C   0  0  0  0  0  0  0  0  0  0  0  0
 1489.2054 -567.7473  894.5855 N   0  0  0  0  0  0  0  0  0  0  0  0
 1489.9113 -567.4210  896.5837 C   0  0  0  0  0  0  0  0  0  0  0  0
 1489.2203 -568.2670  895.8495 N   0  0  0  0  0  0  0  0  0  0  0  0
  1  2  1  0
  1  6  2  0
  1  7  1  0
  2  3  2  0
  2  8  1  0
  3  4  1  0
  4  5  2  0
  5  6  1  0
  7  9  1  0
  8  9  2  0
M  END
$$$$
