
     RDKit          3D

  9 10  0  0  0  0  0  0  0  0999 V2000
  310.0594 -223.9450  454.6431 C   0  0  0  0  0  0  0  0  0  0  0  0
  309.3603 -225.1570  454.7817 C   0  0  0  0  0  0  0  0  0  0  0  0
  309.6066 -226.1810  453.8652 C   0  0  0  0  0  0  0  0  0  0  0  0
  310.5250 -225.9864  452.8477 C   0  0  0  0  0  0  0  0  0  0  0  0
  311.2025 -224.7793  452.7245 C   0  0  0  0  0  0  0  0  0  0  0  0
  310.9785 -223.7434  453.6186 C   0  0  0  0  0  0  0  0  0  0  0  0
  309.6371 -223.1386  455.6517 N   0  0  0  0  0  0  0  0  0  0  0  0
  308.5361 -224.9590  455.9199 C   0  0  0  0  0  0  0  0  0  0  0  0
  308.7039 -223.7590  456.4341 N   0  0  0  0  0  0  0  0  0  0  0  0
  1  2  1  0
  1  6  2  0
  1  7  1  0
  2  3  2  0
  2  8  1  0
  3  4  1  0
  4  5  2  0
  5  6  1  0
  7  9  1  0
  8  9  2  0
M  END
$$$$
