
     RDKit          3D

  9 10  0  0  0  0  0  0  0  0999 V2000
 1678.7384 1005.4906  761.6755 C   0  0  0  0  0  0  0  0  0  0  0  0
 1679.6080 1004.3964  761.5253 C   0  0  0  0  0  0  0  0  0  0  0  0
 1679.2963 1003.4175  760.5794 C   0  0  0  0  0  0  0  0  0  0  0  0
 1678.1486 1003.5414  759.8153 C   0  0  0  0  0  0  0  0  0  0  0  0
 1677.2987 1004.6282  759.9818 C   0  0  0  0  0  0  0  0  0  0  0  0
 1677.5809 1005.6155  760.9136 C   0  0  0  0  0  0  0  0  0  0  0  0
 1679.2736 1006.2784  762.6442 N   0  0  0  0  0  0  0  0  0  0  0  0
 1680.6411 1004.6367  762.4683 C   0  0  0  0  0  0  0  0  0  0  0  0
 1680.4392 1005.7559  763.1301 N   0  0  0  0  0  0  0  0  0  0  0  0
  1  2  1  0
  1  6  2  0
  1  7  1  0
  2  3  2  0
  2  8  1  0
  3  4  1  0
  4  5  2  0
  5  6  1  0
  7  9  1  0
  8  9  2  0
M  END
$$$$
