
     RDKit          3D

  9 10  0  0  0  0  0  0  0  0999 V2000
-1955.6434   13.2920  666.1630 C   0  0  0  0  0  0  0  0  0  0  0  0
-1955.5601   13.6045  667.5314 C   0  0  0  0  0  0  0  0  0  0  0  0
-1954.7927   14.7036  667.9218 C   0  0  0  0  0  0  0  0  0  0  0  0
-1954.1351   15.4575  666.9650 C   0  0  0  0  0  0  0  0  0  0  0  0
-1954.2260   15.1297  665.6176 C   0  0  0  0  0  0  0  0  0  0  0  0
-1954.9797   14.0437  665.1990 C   0  0  0  0  0  0  0  0  0  0  0  0
-1956.4425   12.1976  666.0653 N   0  0  0  0  0  0  0  0  0  0  0  0
-1956.3568   12.6168  668.1666 C   0  0  0  0  0  0  0  0  0  0  0  0
-1956.8795   11.7834  667.2922 N   0  0  0  0  0  0  0  0  0  0  0  0
  1  2  1  0
  1  6  2  0
  1  7  1  0
  2  3  2  0
  2  8  1  0
  3  4  1  0
  4  5  2  0
  5  6  1  0
  7  9  1  0
  8  9  2  0
M  END
$$$$
