
     RDKit          3D

  9 10  0  0  0  0  0  0  0  0999 V2000
  226.6393   71.3624  322.1029 C   0  0  0  0  0  0  0  0  0  0  0  0
  227.4861   70.7851  321.1402 C   0  0  0  0  0  0  0  0  0  0  0  0
  228.8586   71.0272  321.2241 C   0  0  0  0  0  0  0  0  0  0  0  0
  229.3552   71.8224  322.2427 C   0  0  0  0  0  0  0  0  0  0  0  0
  228.5015   72.3880  323.1821 C   0  0  0  0  0  0  0  0  0  0  0  0
  227.1337   72.1667  323.1245 C   0  0  0  0  0  0  0  0  0  0  0  0
  225.3768   70.9685  321.7918 N   0  0  0  0  0  0  0  0  0  0  0  0
  226.6100   70.0597  320.2915 C   0  0  0  0  0  0  0  0  0  0  0  0
  225.3582   70.1707  320.6823 N   0  0  0  0  0  0  0  0  0  0  0  0
  1  2  1  0
  1  6  2  0
  1  7  1  0
  2  3  2  0
  2  8  1  0
  3  4  1  0
  4  5  2  0
  5  6  1  0
  7  9  1  0
  8  9  2  0
M  END
$$$$
