
     RDKit          3D

  9 10  0  0  0  0  0  0  0  0999 V2000
  200.9068  619.3105  637.5272 C   0  0  0  0  0  0  0  0  0  0  0  0
  200.1945  618.9489  636.3701 C   0  0  0  0  0  0  0  0  0  0  0  0
  199.1818  617.9939  636.4783 C   0  0  0  0  0  0  0  0  0  0  0  0
  198.9007  617.4267  637.7092 C   0  0  0  0  0  0  0  0  0  0  0  0
  199.6194  617.7936  638.8406 C   0  0  0  0  0  0  0  0  0  0  0  0
  200.6313  618.7386  638.7649 C   0  0  0  0  0  0  0  0  0  0  0  0
  201.8164  620.2444  637.1442 N   0  0  0  0  0  0  0  0  0  0  0  0
  200.7715  619.7382  635.3414 C   0  0  0  0  0  0  0  0  0  0  0  0
  201.7339  620.5067  635.8054 N   0  0  0  0  0  0  0  0  0  0  0  0
  1  2  1  0
  1  6  2  0
  1  7  1  0
  2  3  2  0
  2  8  1  0
  3  4  1  0
  4  5  2  0
  5  6  1  0
  7  9  1  0
  8  9  2  0
M  END
$$$$
