
     RDKit          3D

  9 10  0  0  0  0  0  0  0  0999 V2000
  636.2845-1362.7611 -277.3767 C   0  0  0  0  0  0  0  0  0  0  0  0
  634.9612-1362.9817 -276.9550 C   0  0  0  0  0  0  0  0  0  0  0  0
  634.2078-1361.8914 -276.5156 C   0  0  0  0  0  0  0  0  0  0  0  0
  634.7716-1360.6270 -276.5030 C   0  0  0  0  0  0  0  0  0  0  0  0
  636.0826-1360.4303 -276.9190 C   0  0  0  0  0  0  0  0  0  0  0  0
  636.8561-1361.4932 -277.3601 C   0  0  0  0  0  0  0  0  0  0  0  0
  636.7773-1363.9712 -277.7490 N   0  0  0  0  0  0  0  0  0  0  0  0
  634.7684-1364.3782 -277.1189 C   0  0  0  0  0  0  0  0  0  0  0  0
  635.8494-1364.9619 -277.5914 N   0  0  0  0  0  0  0  0  0  0  0  0
  1  2  1  0
  1  6  2  0
  1  7  1  0
  2  3  2  0
  2  8  1  0
  3  4  1  0
  4  5  2  0
  5  6  1  0
  7  9  1  0
  8  9  2  0
M  END
$$$$
