
     RDKit          3D

  9 10  0  0  0  0  0  0  0  0999 V2000
 1045.9453 2818.6216-2273.4280 C   0  0  0  0  0  0  0  0  0  0  0  0
 1045.0879 2818.6108-2274.5415 C   0  0  0  0  0  0  0  0  0  0  0  0
 1043.7167 2818.4578-2274.3298 C   0  0  0  0  0  0  0  0  0  0  0  0
 1043.2313 2818.3218-2273.0410 C   0  0  0  0  0  0  0  0  0  0  0  0
 1044.0956 2818.3298-2271.9524 C   0  0  0  0  0  0  0  0  0  0  0  0
 1045.4623 2818.4780-2272.1309 C   0  0  0  0  0  0  0  0  0  0  0  0
 1047.2040 2818.7844-2273.9114 N   0  0  0  0  0  0  0  0  0  0  0  0
 1045.9546 2818.7754-2275.6536 C   0  0  0  0  0  0  0  0  0  0  0  0
 1047.2103 2818.8782-2275.2742 N   0  0  0  0  0  0  0  0  0  0  0  0
  1  2  1  0
  1  6  2  0
  1  7  1  0
  2  3  2  0
  2  8  1  0
  3  4  1  0
  4  5  2  0
  5  6  1  0
  7  9  1  0
  8  9  2  0
M  END
$$$$
