
     RDKit          3D

  9 10  0  0  0  0  0  0  0  0999 V2000
 -871.5960 1720.6379-2186.2576 C   0  0  0  0  0  0  0  0  0  0  0  0
 -871.8275 1721.8845-2185.6506 C   0  0  0  0  0  0  0  0  0  0  0  0
 -871.2983 1723.0297-2186.2490 C   0  0  0  0  0  0  0  0  0  0  0  0
 -870.5637 1722.9176-2187.4172 C   0  0  0  0  0  0  0  0  0  0  0  0
 -870.3413 1721.6760-2187.9993 C   0  0  0  0  0  0  0  0  0  0  0  0
 -870.8527 1720.5204-2187.4277 C   0  0  0  0  0  0  0  0  0  0  0  0
 -872.2142 1719.7097-2185.4817 N   0  0  0  0  0  0  0  0  0  0  0  0
 -872.6039 1721.5776-2184.5024 C   0  0  0  0  0  0  0  0  0  0  0  0
 -872.8322 1720.2845-2184.4062 N   0  0  0  0  0  0  0  0  0  0  0  0
  1  2  1  0
  1  6  2  0
  1  7  1  0
  2  3  2  0
  2  8  1  0
  3  4  1  0
  4  5  2  0
  5  6  1  0
  7  9  1  0
  8  9  2  0
M  END
$$$$
