
     RDKit          3D

  9 10  0  0  0  0  0  0  0  0999 V2000
  249.8474  275.8354  125.7326 C   0  0  0  0  0  0  0  0  0  0  0  0
  248.9576  276.5615  124.9213 C   0  0  0  0  0  0  0  0  0  0  0  0
  247.7086  276.0074  124.6346 C   0  0  0  0  0  0  0  0  0  0  0  0
  247.3726  274.7669  125.1489 C   0  0  0  0  0  0  0  0  0  0  0  0
  248.2677  274.0626  125.9450 C   0  0  0  0  0  0  0  0  0  0  0  0
  249.5158  274.5861  126.2465 C   0  0  0  0  0  0  0  0  0  0  0  0
  250.9679  276.5945  125.8514 N   0  0  0  0  0  0  0  0  0  0  0  0
  249.6612  277.7533  124.6075 C   0  0  0  0  0  0  0  0  0  0  0  0
  250.8545  277.7694  125.1625 N   0  0  0  0  0  0  0  0  0  0  0  0
  1  2  1  0
  1  6  2  0
  1  7  1  0
  2  3  2  0
  2  8  1  0
  3  4  1  0
  4  5  2  0
  5  6  1  0
  7  9  1  0
  8  9  2  0
M  END
$$$$
