
     RDKit          3D

  9 10  0  0  0  0  0  0  0  0999 V2000
 4391.1357-2487.8101 2623.9241 C   0  0  0  0  0  0  0  0  0  0  0  0
 4391.6128-2487.6213 2622.6162 C   0  0  0  0  0  0  0  0  0  0  0  0
 4390.8896-2486.7961 2621.7522 C   0  0  0  0  0  0  0  0  0  0  0  0
 4389.7290-2486.1865 2622.1958 C   0  0  0  0  0  0  0  0  0  0  0  0
 4389.2700-2486.3894 2623.4922 C   0  0  0  0  0  0  0  0  0  0  0  0
 4389.9648-2487.2039 2624.3730 C   0  0  0  0  0  0  0  0  0  0  0  0
 4392.0166-2488.6406 2624.5398 N   0  0  0  0  0  0  0  0  0  0  0  0
 4392.7993-2488.3975 2622.5591 C   0  0  0  0  0  0  0  0  0  0  0  0
 4393.0366-2489.0007 2623.7039 N   0  0  0  0  0  0  0  0  0  0  0  0
  1  2  1  0
  1  6  2  0
  1  7  1  0
  2  3  2  0
  2  8  1  0
  3  4  1  0
  4  5  2  0
  5  6  1  0
  7  9  1  0
  8  9  2  0
M  END
$$$$
