
     RDKit          3D

  9 10  0  0  0  0  0  0  0  0999 V2000
  -62.9739  300.6491  226.5664 C   0  0  0  0  0  0  0  0  0  0  0  0
  -64.1241  299.9677  227.0021 C   0  0  0  0  0  0  0  0  0  0  0  0
  -64.5632  300.1650  228.3127 C   0  0  0  0  0  0  0  0  0  0  0  0
  -63.8657  301.0186  229.1501 C   0  0  0  0  0  0  0  0  0  0  0  0
  -62.7281  301.6794  228.7022 C   0  0  0  0  0  0  0  0  0  0  0  0
  -62.2669  301.5033  227.4065 C   0  0  0  0  0  0  0  0  0  0  0  0
  -62.7757  300.2833  225.2730 N   0  0  0  0  0  0  0  0  0  0  0  0
  -64.5341  299.2126  225.8727 C   0  0  0  0  0  0  0  0  0  0  0  0
  -63.7310  299.4035  224.8475 N   0  0  0  0  0  0  0  0  0  0  0  0
  1  2  1  0
  1  6  2  0
  1  7  1  0
  2  3  2  0
  2  8  1  0
  3  4  1  0
  4  5  2  0
  5  6  1  0
  7  9  1  0
  8  9  2  0
M  END
$$$$
