
     RDKit          3D

  9 10  0  0  0  0  0  0  0  0999 V2000
 -427.1156  666.5443  997.8049 C   0  0  0  0  0  0  0  0  0  0  0  0
 -428.2001  666.9745  997.0203 C   0  0  0  0  0  0  0  0  0  0  0  0
 -428.5081  668.3361  996.9928 C   0  0  0  0  0  0  0  0  0  0  0  0
 -427.7484  669.2276  997.7307 C   0  0  0  0  0  0  0  0  0  0  0  0
 -426.6834  668.7819  998.5041 C   0  0  0  0  0  0  0  0  0  0  0  0
 -426.3533  667.4362  998.5525 C   0  0  0  0  0  0  0  0  0  0  0  0
 -427.0380  665.1966  997.6495 N   0  0  0  0  0  0  0  0  0  0  0  0
 -428.7043  665.7842  996.4346 C   0  0  0  0  0  0  0  0  0  0  0  0
 -428.0109  664.7307  996.8104 N   0  0  0  0  0  0  0  0  0  0  0  0
  1  2  1  0
  1  6  2  0
  1  7  1  0
  2  3  2  0
  2  8  1  0
  3  4  1  0
  4  5  2  0
  5  6  1  0
  7  9  1  0
  8  9  2  0
M  END
$$$$
