
     RDKit          3D

  9 10  0  0  0  0  0  0  0  0999 V2000
  -65.0123 -278.5594 1869.2023 C   0  0  0  0  0  0  0  0  0  0  0  0
  -66.0149 -279.4955 1869.5114 C   0  0  0  0  0  0  0  0  0  0  0  0
  -65.6382 -280.7267 1870.0510 C   0  0  0  0  0  0  0  0  0  0  0  0
  -64.2988 -281.0005 1870.2695 C   0  0  0  0  0  0  0  0  0  0  0  0
  -63.3221 -280.0641 1869.9531 C   0  0  0  0  0  0  0  0  0  0  0  0
  -63.6650 -278.8329 1869.4150 C   0  0  0  0  0  0  0  0  0  0  0  0
  -65.6459 -277.4664 1868.7025 N   0  0  0  0  0  0  0  0  0  0  0  0
  -67.2242 -278.8474 1869.1490 C   0  0  0  0  0  0  0  0  0  0  0  0
  -67.0008 -277.6420 1868.6700 N   0  0  0  0  0  0  0  0  0  0  0  0
  1  2  1  0
  1  6  2  0
  1  7  1  0
  2  3  2  0
  2  8  1  0
  3  4  1  0
  4  5  2  0
  5  6  1  0
  7  9  1  0
  8  9  2  0
M  END
$$$$
