
     RDKit          3D

  9 10  0  0  0  0  0  0  0  0999 V2000
 3527.5532 2238.5264-1232.7869 C   0  0  0  0  0  0  0  0  0  0  0  0
 3528.3025 2238.2717-1233.9495 C   0  0  0  0  0  0  0  0  0  0  0  0
 3529.2476 2237.2451-1233.9254 C   0  0  0  0  0  0  0  0  0  0  0  0
 3529.4285 2236.5034-1232.7704 C   0  0  0  0  0  0  0  0  0  0  0  0
 3528.6812 2236.7734-1231.6302 C   0  0  0  0  0  0  0  0  0  0  0  0
 3527.7356 2237.7878-1231.6222 C   0  0  0  0  0  0  0  0  0  0  0  0
 3526.7200 2239.5579-1233.0831 N   0  0  0  0  0  0  0  0  0  0  0  0
 3527.8279 2239.2244-1234.8885 C   0  0  0  0  0  0  0  0  0  0  0  0
 3526.8882 2239.9858-1234.3705 N   0  0  0  0  0  0  0  0  0  0  0  0
  1  2  1  0
  1  6  2  0
  1  7  1  0
  2  3  2  0
  2  8  1  0
  3  4  1  0
  4  5  2  0
  5  6  1  0
  7  9  1  0
  8  9  2  0
M  END
$$$$
