
     RDKit          3D

  9 10  0  0  0  0  0  0  0  0999 V2000
 -116.6035  138.6069  168.4444 C   0  0  0  0  0  0  0  0  0  0  0  0
 -115.8396  137.5251  168.9170 C   0  0  0  0  0  0  0  0  0  0  0  0
 -114.6537  137.7921  169.6038 C   0  0  0  0  0  0  0  0  0  0  0  0
 -114.2561  139.1028  169.8047 C   0  0  0  0  0  0  0  0  0  0  0  0
 -115.0225  140.1584  169.3257 C   0  0  0  0  0  0  0  0  0  0  0  0
 -116.2045  139.9251  168.6392 C   0  0  0  0  0  0  0  0  0  0  0  0
 -117.6887  138.0717  167.8263 N   0  0  0  0  0  0  0  0  0  0  0  0
 -116.5719  136.3769  168.5179 C   0  0  0  0  0  0  0  0  0  0  0  0
 -117.6698  136.7058  167.8709 N   0  0  0  0  0  0  0  0  0  0  0  0
  1  2  1  0
  1  6  2  0
  1  7  1  0
  2  3  2  0
  2  8  1  0
  3  4  1  0
  4  5  2  0
  5  6  1  0
  7  9  1  0
  8  9  2  0
M  END
$$$$
