
     RDKit          3D

  9 10  0  0  0  0  0  0  0  0999 V2000
  397.0182  -34.5916  112.2225 C   0  0  0  0  0  0  0  0  0  0  0  0
  397.1690  -35.8477  111.6088 C   0  0  0  0  0  0  0  0  0  0  0  0
  396.9103  -36.9956  112.3602 C   0  0  0  0  0  0  0  0  0  0  0  0
  396.5143  -36.8774  113.6814 C   0  0  0  0  0  0  0  0  0  0  0  0
  396.3755  -35.6269  114.2716 C   0  0  0  0  0  0  0  0  0  0  0  0
  396.6261  -34.4687  113.5515 C   0  0  0  0  0  0  0  0  0  0  0  0
  397.3256  -33.6625  111.2801 N   0  0  0  0  0  0  0  0  0  0  0  0
  397.5767  -35.5445  110.2837 C   0  0  0  0  0  0  0  0  0  0  0  0
  397.6678  -34.2456  110.0923 N   0  0  0  0  0  0  0  0  0  0  0  0
  1  2  1  0
  1  6  2  0
  1  7  1  0
  2  3  2  0
  2  8  1  0
  3  4  1  0
  4  5  2  0
  5  6  1  0
  7  9  1  0
  8  9  2  0
M  END
$$$$
