
     RDKit          3D

  9 10  0  0  0  0  0  0  0  0999 V2000
-1455.2542  178.2365  799.4473 C   0  0  0  0  0  0  0  0  0  0  0  0
-1456.5123  177.8262  799.9225 C   0  0  0  0  0  0  0  0  0  0  0  0
-1456.5930  176.6559  800.6796 C   0  0  0  0  0  0  0  0  0  0  0  0
-1455.4458  175.9288  800.9457 C   0  0  0  0  0  0  0  0  0  0  0  0
-1454.2118  176.3483  800.4631 C   0  0  0  0  0  0  0  0  0  0  0  0
-1454.0999  177.5055  799.7077 C   0  0  0  0  0  0  0  0  0  0  0  0
-1455.4602  179.3871  798.7550 N   0  0  0  0  0  0  0  0  0  0  0  0
-1457.4084  178.8184  799.4465 C   0  0  0  0  0  0  0  0  0  0  0  0
-1456.7795  179.7440  798.7539 N   0  0  0  0  0  0  0  0  0  0  0  0
  1  2  1  0
  1  6  2  0
  1  7  1  0
  2  3  2  0
  2  8  1  0
  3  4  1  0
  4  5  2  0
  5  6  1  0
  7  9  1  0
  8  9  2  0
M  END
$$$$
