
     RDKit          3D

  9 10  0  0  0  0  0  0  0  0999 V2000
 1063.5480   13.2532 1371.1732 C   0  0  0  0  0  0  0  0  0  0  0  0
 1063.2764   14.3644 1370.3556 C   0  0  0  0  0  0  0  0  0  0  0  0
 1063.2977   14.1970 1368.9697 C   0  0  0  0  0  0  0  0  0  0  0  0
 1063.5830   12.9537 1368.4318 C   0  0  0  0  0  0  0  0  0  0  0  0
 1063.8534   11.8688 1369.2563 C   0  0  0  0  0  0  0  0  0  0  0  0
 1063.8411   12.0038 1370.6368 C   0  0  0  0  0  0  0  0  0  0  0  0
 1063.4592   13.6886 1372.4574 N   0  0  0  0  0  0  0  0  0  0  0  0
 1063.0381   15.4235 1371.2699 C   0  0  0  0  0  0  0  0  0  0  0  0
 1063.1469   15.0177 1372.5172 N   0  0  0  0  0  0  0  0  0  0  0  0
  1  2  1  0
  1  6  2  0
  1  7  1  0
  2  3  2  0
  2  8  1  0
  3  4  1  0
  4  5  2  0
  5  6  1  0
  7  9  1  0
  8  9  2  0
M  END
$$$$
