
     RDKit          3D

  9 10  0  0  0  0  0  0  0  0999 V2000
 1007.5718-1961.4657-3371.0051 C   0  0  0  0  0  0  0  0  0  0  0  0
 1008.0870-1962.4390-3371.8799 C   0  0  0  0  0  0  0  0  0  0  0  0
 1007.7210-1962.3896-3373.2266 C   0  0  0  0  0  0  0  0  0  0  0  0
 1006.8671-1961.3950-3373.6707 C   0  0  0  0  0  0  0  0  0  0  0  0
 1006.3642-1960.4458-3372.7896 C   0  0  0  0  0  0  0  0  0  0  0  0
 1006.7086-1960.4685-3371.4465 C   0  0  0  0  0  0  0  0  0  0  0  0
 1008.0825-1961.7424-3369.7769 N   0  0  0  0  0  0  0  0  0  0  0  0
 1008.9028-1963.2562-3371.0549 C   0  0  0  0  0  0  0  0  0  0  0  0
 1008.8978-1962.8386-3369.8069 N   0  0  0  0  0  0  0  0  0  0  0  0
  1  2  1  0
  1  6  2  0
  1  7  1  0
  2  3  2  0
  2  8  1  0
  3  4  1  0
  4  5  2  0
  5  6  1  0
  7  9  1  0
  8  9  2  0
M  END
$$$$
