
     RDKit          3D

  9 10  0  0  0  0  0  0  0  0999 V2000
 -325.6132  642.0979  676.0524 C   0  0  0  0  0  0  0  0  0  0  0  0
 -324.9392  641.5512  677.1586 C   0  0  0  0  0  0  0  0  0  0  0  0
 -325.5768  640.5610  677.9090 C   0  0  0  0  0  0  0  0  0  0  0  0
 -326.8470  640.1406  677.5540 C   0  0  0  0  0  0  0  0  0  0  0  0
 -327.4987  640.6971  676.4600 C   0  0  0  0  0  0  0  0  0  0  0  0
 -326.8919  641.6824  675.6959 C   0  0  0  0  0  0  0  0  0  0  0  0
 -324.7776  643.0215  675.5098 N   0  0  0  0  0  0  0  0  0  0  0  0
 -323.6945  642.2322  677.1835 C   0  0  0  0  0  0  0  0  0  0  0  0
 -323.6022  643.1045  676.2020 N   0  0  0  0  0  0  0  0  0  0  0  0
  1  2  1  0
  1  6  2  0
  1  7  1  0
  2  3  2  0
  2  8  1  0
  3  4  1  0
  4  5  2  0
  5  6  1  0
  7  9  1  0
  8  9  2  0
M  END
$$$$
