
     RDKit          3D

  9 10  0  0  0  0  0  0  0  0999 V2000
  318.8422-1001.9137 2583.3479 C   0  0  0  0  0  0  0  0  0  0  0  0
  320.0712-1001.5591 2583.9324 C   0  0  0  0  0  0  0  0  0  0  0  0
  320.0787-1000.5999 2584.9458 C   0  0  0  0  0  0  0  0  0  0  0  0
  318.8892-1000.0204 2585.3528 C   0  0  0  0  0  0  0  0  0  0  0  0
  317.6850-1000.3805 2584.7600 C   0  0  0  0  0  0  0  0  0  0  0  0
  317.6453-1001.3298 2583.7500 C   0  0  0  0  0  0  0  0  0  0  0  0
  319.1191-1002.8541 2582.4070 N   0  0  0  0  0  0  0  0  0  0  0  0
  321.0266-1002.3596 2583.2529 C   0  0  0  0  0  0  0  0  0  0  0  0
  320.4568-1003.1279 2582.3489 N   0  0  0  0  0  0  0  0  0  0  0  0
  1  2  1  0
  1  6  2  0
  1  7  1  0
  2  3  2  0
  2  8  1  0
  3  4  1  0
  4  5  2  0
  5  6  1  0
  7  9  1  0
  8  9  2  0
M  END
$$$$
