
     RDKit          3D

  9 10  0  0  0  0  0  0  0  0999 V2000
 1673.1804 1297.3937  137.6225 C   0  0  0  0  0  0  0  0  0  0  0  0
 1673.6781 1298.6764  137.3332 C   0  0  0  0  0  0  0  0  0  0  0  0
 1673.0778 1299.7805  137.9409 C   0  0  0  0  0  0  0  0  0  0  0  0
 1672.0146 1299.5942  138.8080 C   0  0  0  0  0  0  0  0  0  0  0  0
 1671.5338 1298.3186  139.0777 C   0  0  0  0  0  0  0  0  0  0  0  0
 1672.1085 1297.2026  138.4888 C   0  0  0  0  0  0  0  0  0  0  0  0
 1673.9360 1296.5170  136.9113 N   0  0  0  0  0  0  0  0  0  0  0  0
 1674.7433 1298.4432  136.4249 C   0  0  0  0  0  0  0  0  0  0  0  0
 1674.8937 1297.1593  136.1775 N   0  0  0  0  0  0  0  0  0  0  0  0
  1  2  1  0
  1  6  2  0
  1  7  1  0
  2  3  2  0
  2  8  1  0
  3  4  1  0
  4  5  2  0
  5  6  1  0
  7  9  1  0
  8  9  2  0
M  END
$$$$
