
     RDKit          3D

  9 10  0  0  0  0  0  0  0  0999 V2000
  743.3596 -866.3273 -742.2635 C   0  0  0  0  0  0  0  0  0  0  0  0
  743.7048 -867.2507 -743.2660 C   0  0  0  0  0  0  0  0  0  0  0  0
  744.8256 -866.9926 -744.0575 C   0  0  0  0  0  0  0  0  0  0  0  0
  745.5684 -865.8443 -743.8434 C   0  0  0  0  0  0  0  0  0  0  0  0
  745.2083 -864.9410 -742.8506 C   0  0  0  0  0  0  0  0  0  0  0  0
  744.1002 -865.1691 -742.0490 C   0  0  0  0  0  0  0  0  0  0  0  0
  742.2498 -866.8178 -741.6526 N   0  0  0  0  0  0  0  0  0  0  0  0
  742.7184 -868.2659 -743.1629 C   0  0  0  0  0  0  0  0  0  0  0  0
  741.8565 -868.0054 -742.2032 N   0  0  0  0  0  0  0  0  0  0  0  0
  1  2  1  0
  1  6  2  0
  1  7  1  0
  2  3  2  0
  2  8  1  0
  3  4  1  0
  4  5  2  0
  5  6  1  0
  7  9  1  0
  8  9  2  0
M  END
$$$$
