
     RDKit          3D

  9 10  0  0  0  0  0  0  0  0999 V2000
-4535.0210-1934.9486 1542.2240 C   0  0  0  0  0  0  0  0  0  0  0  0
-4536.0693-1934.0282 1542.0457 C   0  0  0  0  0  0  0  0  0  0  0  0
-4537.0576-1933.9412 1543.0264 C   0  0  0  0  0  0  0  0  0  0  0  0
-4536.9907-1934.7548 1544.1450 C   0  0  0  0  0  0  0  0  0  0  0  0
-4535.9497-1935.6606 1544.3008 C   0  0  0  0  0  0  0  0  0  0  0  0
-4534.9517-1935.7706 1543.3435 C   0  0  0  0  0  0  0  0  0  0  0  0
-4534.2100-1934.8245 1541.1396 N   0  0  0  0  0  0  0  0  0  0  0  0
-4535.7812-1933.4037 1540.8048 C   0  0  0  0  0  0  0  0  0  0  0  0
-4534.6758-1933.8784 1540.2705 N   0  0  0  0  0  0  0  0  0  0  0  0
  1  2  1  0
  1  6  2  0
  1  7  1  0
  2  3  2  0
  2  8  1  0
  3  4  1  0
  4  5  2  0
  5  6  1  0
  7  9  1  0
  8  9  2  0
M  END
$$$$
