
     RDKit          3D

  9 10  0  0  0  0  0  0  0  0999 V2000
-2797.9766 2323.2854-2095.1482 C   0  0  0  0  0  0  0  0  0  0  0  0
-2798.4790 2323.7039-2093.9038 C   0  0  0  0  0  0  0  0  0  0  0  0
-2798.1470 2324.9785-2093.4417 C   0  0  0  0  0  0  0  0  0  0  0  0
-2797.3357 2325.7979-2094.2075 C   0  0  0  0  0  0  0  0  0  0  0  0
-2796.8440 2325.3635-2095.4329 C   0  0  0  0  0  0  0  0  0  0  0  0
-2797.1567 2324.1033-2095.9189 C   0  0  0  0  0  0  0  0  0  0  0  0
-2798.4490 2322.0281-2095.3518 N   0  0  0  0  0  0  0  0  0  0  0  0
-2799.2488 2322.6025-2093.4473 C   0  0  0  0  0  0  0  0  0  0  0  0
-2799.2295 2321.6091-2094.3113 N   0  0  0  0  0  0  0  0  0  0  0  0
  1  2  1  0
  1  6  2  0
  1  7  1  0
  2  3  2  0
  2  8  1  0
  3  4  1  0
  4  5  2  0
  5  6  1  0
  7  9  1  0
  8  9  2  0
M  END
$$$$
