
     RDKit          3D

  9 10  0  0  0  0  0  0  0  0999 V2000
 4675.7681-5909.4932 -890.9837 C   0  0  0  0  0  0  0  0  0  0  0  0
 4674.6343-5910.2075 -890.5649 C   0  0  0  0  0  0  0  0  0  0  0  0
 4673.4653-5910.1162 -891.3239 C   0  0  0  0  0  0  0  0  0  0  0  0
 4673.4468-5909.3325 -892.4639 C   0  0  0  0  0  0  0  0  0  0  0  0
 4674.5776-5908.6289 -892.8607 C   0  0  0  0  0  0  0  0  0  0  0  0
 4675.7539-5908.6992 -892.1270 C   0  0  0  0  0  0  0  0  0  0  0  0
 4676.7476-5909.7583 -890.0800 N   0  0  0  0  0  0  0  0  0  0  0  0
 4675.0527-5910.8721 -889.3823 C   0  0  0  0  0  0  0  0  0  0  0  0
 4676.3105-5910.6025 -889.0989 N   0  0  0  0  0  0  0  0  0  0  0  0
  1  2  1  0
  1  6  2  0
  1  7  1  0
  2  3  2  0
  2  8  1  0
  3  4  1  0
  4  5  2  0
  5  6  1  0
  7  9  1  0
  8  9  2  0
M  END
$$$$
