
     RDKit          3D

  9 10  0  0  0  0  0  0  0  0999 V2000
-1717.7377 -346.4649 2825.7378 C   0  0  0  0  0  0  0  0  0  0  0  0
-1717.8635 -346.2665 2827.1243 C   0  0  0  0  0  0  0  0  0  0  0  0
-1717.3912 -345.0749 2827.6758 C   0  0  0  0  0  0  0  0  0  0  0  0
-1716.8140 -344.1191 2826.8567 C   0  0  0  0  0  0  0  0  0  0  0  0
-1716.6949 -344.3349 2825.4888 C   0  0  0  0  0  0  0  0  0  0  0  0
-1717.1538 -345.5097 2824.9119 C   0  0  0  0  0  0  0  0  0  0  0  0
-1718.2717 -347.6850 2825.4727 N   0  0  0  0  0  0  0  0  0  0  0  0
-1718.4927 -347.4500 2827.5920 C   0  0  0  0  0  0  0  0  0  0  0  0
-1718.7344 -348.2893 2826.6074 N   0  0  0  0  0  0  0  0  0  0  0  0
  1  2  1  0
  1  6  2  0
  1  7  1  0
  2  3  2  0
  2  8  1  0
  3  4  1  0
  4  5  2  0
  5  6  1  0
  7  9  1  0
  8  9  2  0
M  END
$$$$
