
     RDKit          3D

 16 17  0  0  0  0  0  0  0  0999 V2000
    6.4338  153.5946   87.7667 C   0  0  0  0  0  0  0  0  0  0  0  0
    5.2297  153.3695   88.5622 O   0  0  0  0  0  0  0  0  0  0  0  0
    6.6495  154.9649   87.0675 C   0  0  0  0  0  0  0  0  0  0  0  0
    7.7678  155.7140   87.6084 O   0  0  0  0  0  0  0  0  0  0  0  0
    8.9985  155.4610   86.8608 C   0  0  0  0  0  0  0  0  0  0  0  0
    9.9552  154.4440   87.3980 N   0  0  0  0  0  0  0  0  0  0  0  0
   11.1680  154.6830   87.8956 C   0  0  0  0  0  0  0  0  0  0  0  0
   11.7189  153.5052   88.3248 N   0  0  0  0  0  0  0  0  0  0  0  0
   10.8988  152.4926   88.1264 C   0  0  0  0  0  0  0  0  0  0  0  0
   10.9325  151.1109   88.3633 C   0  0  0  0  0  0  0  0  0  0  0  0
   11.8822  150.4572   88.9053 O   0  0  0  0  0  0  0  0  0  0  0  0
    9.8542  150.4208   87.9930 N   0  0  0  0  0  0  0  0  0  0  0  0
    8.7983  150.9832   87.4219 C   0  0  0  0  0  0  0  0  0  0  0  0
    7.7284  150.2124   87.0784 N   0  0  0  0  0  0  0  0  0  0  0  0
    8.7571  152.3056   87.1743 N   0  0  0  0  0  0  0  0  0  0  0  0
    9.7852  153.0931   87.5205 C   0  0  0  0  0  0  0  0  0  0  0  0
  1  2  1  6
  1  3  1  0
  3  4  1  1
  5  4  1  6
  5  6  1  0
  6  7  1  0
  6 16  1  0
  7  8  2  0
  8  9  1  0
  9 10  1  0
  9 16  2  0
 10 11  2  0
 10 12  1  0
 12 13  1  0
 13 14  1  0
 13 15  2  0
 15 16  1  0
M  END
$$$$
