
     RDKit          3D

 16 17  0  0  0  0  0  0  0  0999 V2000
  -26.7861  250.9075  196.3452 C   0  0  0  0  0  0  0  0  0  0  0  0
  -25.7302  251.6204  195.6308 O   0  0  0  0  0  0  0  0  0  0  0  0
  -26.6753  250.7059  197.8814 C   0  0  0  0  0  0  0  0  0  0  0  0
  -25.4444  251.2315  198.4406 O   0  0  0  0  0  0  0  0  0  0  0  0
  -25.0422  252.4751  197.7852 C   0  0  0  0  0  0  0  0  0  0  0  0
  -24.1542  253.4154  198.5376 N   0  0  0  0  0  0  0  0  0  0  0  0
  -24.5278  254.2583  199.4995 C   0  0  0  0  0  0  0  0  0  0  0  0
  -23.4253  254.9175  199.9739 N   0  0  0  0  0  0  0  0  0  0  0  0
  -22.3304  254.5289  199.3516 C   0  0  0  0  0  0  0  0  0  0  0  0
  -20.9670  254.8489  199.4222 C   0  0  0  0  0  0  0  0  0  0  0  0
  -20.4238  255.6826  200.2178 O   0  0  0  0  0  0  0  0  0  0  0  0
  -20.1633  254.2030  198.5778 N   0  0  0  0  0  0  0  0  0  0  0  0
  -20.6034  253.3095  197.7031 C   0  0  0  0  0  0  0  0  0  0  0  0
  -19.7187  252.6835  196.8772 N   0  0  0  0  0  0  0  0  0  0  0  0
  -21.9108  253.0025  197.6131 N   0  0  0  0  0  0  0  0  0  0  0  0
  -22.8024  253.5856  198.4266 C   0  0  0  0  0  0  0  0  0  0  0  0
  1  2  1  6
  1  3  1  0
  3  4  1  1
  5  4  1  6
  5  6  1  0
  6  7  1  0
  6 16  1  0
  7  8  2  0
  8  9  1  0
  9 10  1  0
  9 16  2  0
 10 11  2  0
 10 12  1  0
 12 13  1  0
 13 14  1  0
 13 15  2  0
 15 16  1  0
M  END
$$$$
