
     RDKit          3D

 16 17  0  0  0  0  0  0  0  0999 V2000
 -124.9580  366.0025  -85.8412 C   0  0  0  0  0  0  0  0  0  0  0  0
 -125.3443  365.3275  -84.6047 O   0  0  0  0  0  0  0  0  0  0  0  0
 -123.5589  365.7345  -86.4602 C   0  0  0  0  0  0  0  0  0  0  0  0
 -123.3990  366.3062  -87.7837 O   0  0  0  0  0  0  0  0  0  0  0  0
 -122.8080  365.3482  -88.7170 C   0  0  0  0  0  0  0  0  0  0  0  0
 -123.2137  365.4209  -90.1553 N   0  0  0  0  0  0  0  0  0  0  0  0
 -122.7362  366.2628  -91.0713 C   0  0  0  0  0  0  0  0  0  0  0  0
 -123.3209  365.9929  -92.2794 N   0  0  0  0  0  0  0  0  0  0  0  0
 -124.1715  364.9904  -92.1865 C   0  0  0  0  0  0  0  0  0  0  0  0
 -125.0209  364.3080  -93.0694 C   0  0  0  0  0  0  0  0  0  0  0  0
 -125.1576  364.5322  -94.3161 O   0  0  0  0  0  0  0  0  0  0  0  0
 -125.7453  363.3187  -92.5473 N   0  0  0  0  0  0  0  0  0  0  0  0
 -125.6920  362.9836  -91.2657 C   0  0  0  0  0  0  0  0  0  0  0  0
 -126.4574  361.9538  -90.8070 N   0  0  0  0  0  0  0  0  0  0  0  0
 -124.8930  363.6388  -90.4031 N   0  0  0  0  0  0  0  0  0  0  0  0
 -124.1124  364.6417  -90.8290 C   0  0  0  0  0  0  0  0  0  0  0  0
  1  2  1  6
  1  3  1  0
  3  4  1  1
  5  4  1  6
  5  6  1  0
  6  7  1  0
  6 16  1  0
  7  8  2  0
  8  9  1  0
  9 10  1  0
  9 16  2  0
 10 11  2  0
 10 12  1  0
 12 13  1  0
 13 14  1  0
 13 15  2  0
 15 16  1  0
M  END
$$$$
