
     RDKit          3D

 16 17  0  0  0  0  0  0  0  0999 V2000
  -96.0928 -402.3425  537.1609 C   0  0  0  0  0  0  0  0  0  0  0  0
  -94.9187 -402.5725  537.9990 O   0  0  0  0  0  0  0  0  0  0  0  0
  -96.4294 -403.3387  536.0175 C   0  0  0  0  0  0  0  0  0  0  0  0
  -95.3413 -403.5176  535.0751 O   0  0  0  0  0  0  0  0  0  0  0  0
  -94.2155 -402.6346  535.3771 C   0  0  0  0  0  0  0  0  0  0  0  0
  -94.5074 -401.3031  535.9938 N   0  0  0  0  0  0  0  0  0  0  0  0
  -93.8751 -400.7545  537.0303 C   0  0  0  0  0  0  0  0  0  0  0  0
  -94.3995 -399.5128  537.2721 N   0  0  0  0  0  0  0  0  0  0  0  0
  -95.3614 -399.2248  536.4183 C   0  0  0  0  0  0  0  0  0  0  0  0
  -96.2171 -398.1357  536.1990 C   0  0  0  0  0  0  0  0  0  0  0  0
  -96.2390 -397.0440  536.8552 O   0  0  0  0  0  0  0  0  0  0  0  0
  -97.0829 -398.2572  535.1928 N   0  0  0  0  0  0  0  0  0  0  0  0
  -97.1584 -399.3402  534.4321 C   0  0  0  0  0  0  0  0  0  0  0  0
  -98.0647 -399.3872  533.4158 N   0  0  0  0  0  0  0  0  0  0  0  0
  -96.3541 -400.3996  534.6400 N   0  0  0  0  0  0  0  0  0  0  0  0
  -95.4379 -400.3745  535.6182 C   0  0  0  0  0  0  0  0  0  0  0  0
  1  2  1  6
  1  3  1  0
  3  4  1  1
  5  4  1  6
  5  6  1  0
  6  7  1  0
  6 16  1  0
  7  8  2  0
  8  9  1  0
  9 10  1  0
  9 16  2  0
 10 11  2  0
 10 12  1  0
 12 13  1  0
 13 14  1  0
 13 15  2  0
 15 16  1  0
M  END
$$$$
