
     RDKit          3D

 16 17  0  0  0  0  0  0  0  0999 V2000
   55.9366  128.7894 -127.9498 C   0  0  0  0  0  0  0  0  0  0  0  0
   56.1001  127.5427 -127.2064 O   0  0  0  0  0  0  0  0  0  0  0  0
   55.3902  130.0509 -127.2266 C   0  0  0  0  0  0  0  0  0  0  0  0
   55.2456  129.8723 -125.7943 O   0  0  0  0  0  0  0  0  0  0  0  0
   56.0623  128.7629 -125.3041 C   0  0  0  0  0  0  0  0  0  0  0  0
   55.4762  127.8587 -124.2662 N   0  0  0  0  0  0  0  0  0  0  0  0
   55.4296  128.0852 -122.9538 C   0  0  0  0  0  0  0  0  0  0  0  0
   54.7785  127.0485 -122.3408 N   0  0  0  0  0  0  0  0  0  0  0  0
   54.3900  126.1425 -123.2156 C   0  0  0  0  0  0  0  0  0  0  0  0
   53.7053  124.9201 -123.1597 C   0  0  0  0  0  0  0  0  0  0  0  0
   53.2393  124.3588 -122.1152 O   0  0  0  0  0  0  0  0  0  0  0  0
   53.5158  124.2945 -124.3211 N   0  0  0  0  0  0  0  0  0  0  0  0
   53.9484  124.7746 -125.4786 C   0  0  0  0  0  0  0  0  0  0  0  0
   53.7089  124.0809 -126.6266 N   0  0  0  0  0  0  0  0  0  0  0  0
   54.6200  125.9390 -125.5468 N   0  0  0  0  0  0  0  0  0  0  0  0
   54.8518  126.6547 -124.4373 C   0  0  0  0  0  0  0  0  0  0  0  0
  1  2  1  6
  1  3  1  0
  3  4  1  1
  5  4  1  6
  5  6  1  0
  6  7  1  0
  6 16  1  0
  7  8  2  0
  8  9  1  0
  9 10  1  0
  9 16  2  0
 10 11  2  0
 10 12  1  0
 12 13  1  0
 13 14  1  0
 13 15  2  0
 15 16  1  0
M  END
$$$$
