
     RDKit          3D

 16 17  0  0  0  0  0  0  0  0999 V2000
  -20.0728  -87.2294  -40.6531 C   0  0  0  0  0  0  0  0  0  0  0  0
  -18.7861  -87.8279  -40.9997 O   0  0  0  0  0  0  0  0  0  0  0  0
  -21.1839  -87.1140  -41.7325 C   0  0  0  0  0  0  0  0  0  0  0  0
  -20.6621  -86.9824  -43.0796 O   0  0  0  0  0  0  0  0  0  0  0  0
  -19.6681  -88.0130  -43.3759 C   0  0  0  0  0  0  0  0  0  0  0  0
  -19.5957  -89.2049  -42.4746 N   0  0  0  0  0  0  0  0  0  0  0  0
  -18.6515  -89.4562  -41.5685 C   0  0  0  0  0  0  0  0  0  0  0  0
  -18.9549  -90.6194  -40.9128 N   0  0  0  0  0  0  0  0  0  0  0  0
  -20.0787  -91.1425  -41.3605 C   0  0  0  0  0  0  0  0  0  0  0  0
  -20.8438  -92.2808  -41.0683 C   0  0  0  0  0  0  0  0  0  0  0  0
  -20.5890  -93.1588  -40.1810 O   0  0  0  0  0  0  0  0  0  0  0  0
  -21.9541  -92.4475  -41.7864 N   0  0  0  0  0  0  0  0  0  0  0  0
  -22.3327  -91.6041  -42.7365 C   0  0  0  0  0  0  0  0  0  0  0  0
  -23.4864  -91.8374  -43.4230 N   0  0  0  0  0  0  0  0  0  0  0  0
  -21.6014  -90.5153  -43.0388 N   0  0  0  0  0  0  0  0  0  0  0  0
  -20.4731  -90.2476  -42.3662 C   0  0  0  0  0  0  0  0  0  0  0  0
  1  2  1  6
  1  3  1  0
  3  4  1  1
  5  4  1  6
  5  6  1  0
  6  7  1  0
  6 16  1  0
  7  8  2  0
  8  9  1  0
  9 10  1  0
  9 16  2  0
 10 11  2  0
 10 12  1  0
 12 13  1  0
 13 14  1  0
 13 15  2  0
 15 16  1  0
M  END
$$$$
