
     RDKit          3D

 16 17  0  0  0  0  0  0  0  0999 V2000
 -110.6233  140.7755  -26.7406 C   0  0  0  0  0  0  0  0  0  0  0  0
 -110.9719  142.0968  -26.2245 O   0  0  0  0  0  0  0  0  0  0  0  0
 -110.0544  139.6982  -25.7769 C   0  0  0  0  0  0  0  0  0  0  0  0
 -108.6268  139.4907  -25.9285 O   0  0  0  0  0  0  0  0  0  0  0  0
 -107.8679  140.1810  -24.8865 C   0  0  0  0  0  0  0  0  0  0  0  0
 -107.5379  139.4280  -23.6365 N   0  0  0  0  0  0  0  0  0  0  0  0
 -108.3778  139.1330  -22.6449 C   0  0  0  0  0  0  0  0  0  0  0  0
 -107.7160  138.3979  -21.6980 N   0  0  0  0  0  0  0  0  0  0  0  0
 -106.4593  138.1963  -22.0402 C   0  0  0  0  0  0  0  0  0  0  0  0
 -105.3579  137.5358  -21.4770 C   0  0  0  0  0  0  0  0  0  0  0  0
 -105.3400  136.8934  -20.3770 O   0  0  0  0  0  0  0  0  0  0  0  0
 -104.2229  137.5782  -22.1742 N   0  0  0  0  0  0  0  0  0  0  0  0
 -104.1113  138.2104  -23.3340 C   0  0  0  0  0  0  0  0  0  0  0  0
 -102.9187  138.2024  -23.9930 N   0  0  0  0  0  0  0  0  0  0  0  0
 -105.1551  138.8615  -23.8801 N   0  0  0  0  0  0  0  0  0  0  0  0
 -106.3468  138.8688  -23.2662 C   0  0  0  0  0  0  0  0  0  0  0  0
  1  2  1  6
  1  3  1  0
  3  4  1  1
  5  4  1  6
  5  6  1  0
  6  7  1  0
  6 16  1  0
  7  8  2  0
  8  9  1  0
  9 10  1  0
  9 16  2  0
 10 11  2  0
 10 12  1  0
 12 13  1  0
 13 14  1  0
 13 15  2  0
 15 16  1  0
M  END
$$$$
