
     RDKit          3D

 44 48  0  0  0  0  0  0  0  0999 V2000
    1.5248   43.7222    2.9737 C   0  0  0  0  0  0  0  0  0  0  0  0
   -2.9112   44.9690    0.5504 C   0  0  0  0  0  0  0  0  0  0  0  0
   -1.5266   44.6515   -0.0480 C   0  0  1  0  0  0  0  0  0  0  0  0
    0.7713   44.4194    0.6621 C   0  0  0  0  0  0  0  0  0  0  0  0
   -3.9653   45.4372   -0.5141 C   0  0  0  0  0  0  0  0  0  0  0  0
   -4.1190   44.5623   -1.8002 C   0  0  0  0  0  0  0  0  0  0  0  0
   -1.0782   45.7901   -0.9173 C   0  0  0  0  0  0  0  0  0  0  0  0
   -0.7442   47.7581   -1.6858 C   0  0  0  0  0  0  0  0  0  0  0  0
    0.3561   48.1876   -9.1555 C   0  0  0  0  0  0  0  0  0  0  0  0
   -0.7547   47.1219   -4.2138 C   0  0  0  0  0  0  0  0  0  0  0  0
    0.6802   48.2654    5.2544 Cl  0  0  0  0  0  0  0  0  0  0  0  0
    3.0146   45.1489    6.1546 C   0  0  0  0  0  0  0  0  0  0  0  0
    2.3676   46.3791    6.2032 C   0  0  0  0  0  0  0  0  0  0  0  0
    1.4885   46.7206    5.1960 C   0  0  0  0  0  0  0  0  0  0  0  0
    1.2409   45.8717    4.1340 C   0  0  0  0  0  0  0  0  0  0  0  0
    1.8895   44.6308    4.0688 C   0  0  0  0  0  0  0  0  0  0  0  0
    2.7936   44.2807    5.0887 C   0  0  0  0  0  0  0  0  0  0  0  0
    3.5233   43.0535    5.0319 N   0  0  0  0  0  0  0  0  0  0  0  0
    3.4011   41.9733    4.2513 C   0  0  0  0  0  0  0  0  0  0  0  0
    4.2419   41.0556    4.6372 N   0  0  0  0  0  0  0  0  0  0  0  0
    4.9216   41.5966    5.6789 N   0  0  0  0  0  0  0  0  0  0  0  0
    4.4976   42.7953    5.9340 N   0  0  0  0  0  0  0  0  0  0  0  0
    1.7355   43.9551    1.6845 C   0  0  0  0  0  0  0  0  0  0  0  0
    1.1369   45.0266   -0.3551 O   0  0  0  0  0  0  0  0  0  0  0  0
   -0.5362   44.2072    0.9326 N   0  0  0  0  0  0  0  0  0  0  0  0
   -0.9306   47.0420   -0.5255 N   0  0  0  0  0  0  0  0  0  0  0  0
   -0.7656   46.9058   -2.7675 C   0  0  0  0  0  0  0  0  0  0  0  0
   -0.9580   45.6593   -2.2448 N   0  0  0  0  0  0  0  0  0  0  0  0
    0.2511   47.9017   -4.7890 C   0  0  0  0  0  0  0  0  0  0  0  0
    0.3518   48.0183   -6.1637 C   0  0  0  0  0  0  0  0  0  0  0  0
   -0.5584   47.3631   -6.9934 C   0  0  0  0  0  0  0  0  0  0  0  0
   -1.5909   46.6155   -6.4254 C   0  0  0  0  0  0  0  0  0  0  0  0
   -1.7031   46.4848   -5.0410 C   0  0  0  0  0  0  0  0  0  0  0  0
   -0.4446   47.3787   -8.4097 N   0  0  0  0  0  0  0  0  0  0  0  0
    0.1493   49.3543   -9.4175 O   0  0  0  0  0  0  0  0  0  0  0  0
    1.4497   47.5080   -9.5485 O   0  0  0  0  0  0  0  0  0  0  0  0
    2.2434   46.9166   -8.4863 C   0  0  0  0  0  0  0  0  0  0  0  0
   -4.7317   45.2722   -3.0255 C   0  0  0  0  0  0  0  0  0  0  0  0
   -3.8388   46.3595   -3.6457 C   0  0  1  0  0  0  0  0  0  0  0  0
   -2.7583   45.7763   -4.4395 N   0  0  0  0  0  0  0  0  0  0  0  0
   -4.6527   47.3460   -4.4667 C   0  0  2  0  0  0  0  0  0  0  0  0
   -5.0890   46.8320   -5.6080 F   0  0  0  0  0  0  0  0  0  0  0  0
   -3.9469   48.4320   -4.7891 F   0  0  0  0  0  0  0  0  0  0  0  0
   -5.7254   47.7654   -3.8145 F   0  0  0  0  0  0  0  0  0  0  0  0
  1 16  1  0
  1 23  2  0
  2  3  1  6
  5  2  1  6
  3  7  1  0
  3 25  1  1
  4 23  1  0
  4 24  2  0
  4 25  1  0
  6  5  1  6
 38  6  1  6
  7 26  2  0
  7 28  1  0
  8 26  1  0
  8 27  2  0
  9 34  1  0
  9 35  2  0
  9 36  1  0
 10 27  1  0
 10 29  1  0
 10 33  2  0
 11 14  1  0
 12 13  2  0
 12 17  1  0
 13 14  1  0
 14 15  2  0
 15 16  1  0
 16 17  2  0
 17 18  1  0
 18 19  1  0
 18 22  1  0
 19 20  2  0
 20 21  1  0
 21 22  2  0
 27 28  1  0
 29 30  2  0
 30 31  1  0
 31 32  2  0
 31 34  1  0
 32 33  1  0
 33 40  1  0
 37 36  1  6
 38 39  1  0
 39 40  1  6
 39 41  1  0
 41 42  1  6
 41 43  1  0
 41 44  1  0
M  END
$$$$
