
     RDKit          3D

 44 48  0  0  0  0  0  0  0  0999 V2000
-71529.265616455.0234-54586.2930 C   0  0  0  0  0  0  0  0  0  0  0  0
-71531.710916453.6738-54586.6562 C   0  0  0  0  0  0  0  0  0  0  0  0
-71532.968816454.4238-54586.1406 C   0  0  1  0  0  0  0  0  0  0  0  0
-71531.359416456.0371-54585.3008 C   0  0  0  0  0  0  0  0  0  0  0  0
-71532.039116452.3809-54587.4688 C   0  0  0  0  0  0  0  0  0  0  0  0
-71533.117216452.5020-54588.6094 C   0  0  0  0  0  0  0  0  0  0  0  0
-71533.875016453.4707-54585.4336 C   0  0  0  0  0  0  0  0  0  0  0  0
-71534.593816451.8438-54584.2461 C   0  0  0  0  0  0  0  0  0  0  0  0
-71541.445316449.1777-54586.0234 C   0  0  0  0  0  0  0  0  0  0  0  0
-71536.781216451.4082-54585.5820 C   0  0  0  0  0  0  0  0  0  0  0  0
-71526.734416458.2871-54589.3789 Cl  0  0  0  0  0  0  0  0  0  0  0  0
-71526.984416457.9121-54585.4102 C   0  0  0  0  0  0  0  0  0  0  0  0
-71526.664116458.3672-54586.6719 C   0  0  0  0  0  0  0  0  0  0  0  0
-71527.156216457.7207-54587.7852 C   0  0  0  0  0  0  0  0  0  0  0  0
-71528.007816456.6152-54587.6797 C   0  0  0  0  0  0  0  0  0  0  0  0
-71528.335916456.1328-54586.3945 C   0  0  0  0  0  0  0  0  0  0  0  0
-71527.789116456.7949-54585.2656 C   0  0  0  0  0  0  0  0  0  0  0  0
-71528.085916456.3066-54583.9453 N   0  0  0  0  0  0  0  0  0  0  0  0
-71529.031216456.5645-54583.0859 C   0  0  0  0  0  0  0  0  0  0  0  0
-71528.828116455.9473-54581.9453 N   0  0  0  0  0  0  0  0  0  0  0  0
-71527.679716455.2520-54582.1406 N   0  0  0  0  0  0  0  0  0  0  0  0
-71527.187516455.4746-54583.3477 N   0  0  0  0  0  0  0  0  0  0  0  0
-71530.312516454.9941-54585.5195 C   0  0  0  0  0  0  0  0  0  0  0  0
-71531.070316457.2012-54584.9961 O   0  0  0  0  0  0  0  0  0  0  0  0
-71532.656216455.6445-54585.3828 N   0  0  0  0  0  0  0  0  0  0  0  0
-71533.539116452.7227-54584.4023 N   0  0  0  0  0  0  0  0  0  0  0  0
-71535.546916452.0938-54585.2031 C   0  0  0  0  0  0  0  0  0  0  0  0
-71535.054716453.1504-54585.9219 N   0  0  0  0  0  0  0  0  0  0  0  0
-71537.742216451.1230-54584.6133 C   0  0  0  0  0  0  0  0  0  0  0  0
-71538.960916450.5879-54584.9844 C   0  0  0  0  0  0  0  0  0  0  0  0
-71539.234416450.3105-54586.3203 C   0  0  0  0  0  0  0  0  0  0  0  0
-71538.273416450.5527-54587.2852 C   0  0  0  0  0  0  0  0  0  0  0  0
-71537.039116451.0996-54586.9375 C   0  0  0  0  0  0  0  0  0  0  0  0
-71540.515616449.8418-54586.7617 N   0  0  0  0  0  0  0  0  0  0  0  0
-71542.375016449.6680-54585.4336 O   0  0  0  0  0  0  0  0  0  0  0  0
-71541.195316447.8535-54586.0586 O   0  0  0  0  0  0  0  0  0  0  0  0
-71539.789116447.4824-54585.8203 C   0  0  0  0  0  0  0  0  0  0  0  0
-71533.804716451.1875-54589.0195 C   0  0  0  0  0  0  0  0  0  0  0  0
-71534.734416450.5957-54587.9531 C   0  0  1  0  0  0  0  0  0  0  0  0
-71536.007816451.3184-54587.8789 N   0  0  0  0  0  0  0  0  0  0  0  0
-71534.960916449.1016-54588.1797 C   0  0  2  0  0  0  0  0  0  0  0  0
-71534.351616448.6523-54589.2617 F   0  0  0  0  0  0  0  0  0  0  0  0
-71536.265616448.8145-54588.3398 F   0  0  0  0  0  0  0  0  0  0  0  0
-71534.539116448.3789-54587.1680 F   0  0  0  0  0  0  0  0  0  0  0  0
  1 16  1  0
  1 23  2  0
  2  3  1  6
  5  2  1  6
  3  7  1  0
  3 25  1  1
  4 23  1  0
  4 24  2  0
  4 25  1  0
  6  5  1  6
 38  6  1  6
  7 26  2  0
  7 28  1  0
  8 26  1  0
  8 27  2  0
  9 34  1  0
  9 35  2  0
  9 36  1  0
 10 27  1  0
 10 29  1  0
 10 33  2  0
 11 14  1  0
 12 13  2  0
 12 17  1  0
 13 14  1  0
 14 15  2  0
 15 16  1  0
 16 17  2  0
 17 18  1  0
 18 19  1  0
 18 22  1  0
 19 20  2  0
 20 21  1  0
 21 22  2  0
 27 28  1  0
 29 30  2  0
 30 31  1  0
 31 32  2  0
 31 34  1  0
 32 33  1  0
 33 40  1  0
 37 36  1  6
 38 39  1  0
 39 40  1  6
 39 41  1  0
 41 42  1  6
 41 43  1  0
 41 44  1  0
M  END
$$$$
