
     RDKit          3D

 44 48  0  0  0  0  0  0  0  0999 V2000
   45.0122   30.9306   16.5568 C   0  0  0  0  0  0  0  0  0  0  0  0
   41.6156   28.8356   14.4183 C   0  0  0  0  0  0  0  0  0  0  0  0
   41.7568   30.2823   13.9052 C   0  0  1  0  0  0  0  0  0  0  0  0
   43.9455   31.2335   14.2835 C   0  0  0  0  0  0  0  0  0  0  0  0
   40.6456   27.9530   13.5559 C   0  0  0  0  0  0  0  0  0  0  0  0
   40.8597   27.9600   12.0076 C   0  0  0  0  0  0  0  0  0  0  0  0
   40.3957   30.8760   13.6854 C   0  0  0  0  0  0  0  0  0  0  0  0
   38.3247   31.3625   13.9081 C   0  0  0  0  0  0  0  0  0  0  0  0
   34.5727   33.2072    7.6090 C   0  0  0  0  0  0  0  0  0  0  0  0
   37.7979   31.6913   11.3763 C   0  0  0  0  0  0  0  0  0  0  0  0
   45.6402   34.7232   19.9886 Cl  0  0  0  0  0  0  0  0  0  0  0  0
   42.8582   31.8917   19.5248 C   0  0  0  0  0  0  0  0  0  0  0  0
   43.5731   32.9817   20.0094 C   0  0  0  0  0  0  0  0  0  0  0  0
   44.7408   33.3588   19.3782 C   0  0  0  0  0  0  0  0  0  0  0  0
   45.2220   32.6732   18.2790 C   0  0  0  0  0  0  0  0  0  0  0  0
   44.5150   31.5696   17.7824 C   0  0  0  0  0  0  0  0  0  0  0  0
   43.3280   31.1752   18.4272 C   0  0  0  0  0  0  0  0  0  0  0  0
   42.6075   30.0199   17.9939 N   0  0  0  0  0  0  0  0  0  0  0  0
   41.8149   29.8017   16.9378 C   0  0  0  0  0  0  0  0  0  0  0  0
   41.3010   28.6067   17.0142 N   0  0  0  0  0  0  0  0  0  0  0  0
   41.8112   28.0606   18.1461 N   0  0  0  0  0  0  0  0  0  0  0  0
   42.5937   28.8992   18.7512 N   0  0  0  0  0  0  0  0  0  0  0  0
   44.9557   31.4598   15.3414 C   0  0  0  0  0  0  0  0  0  0  0  0
   44.2481   31.2187   13.0813 O   0  0  0  0  0  0  0  0  0  0  0  0
   42.6636   31.1142   14.6961 N   0  0  0  0  0  0  0  0  0  0  0  0
   39.4550   30.9977   14.6034 N   0  0  0  0  0  0  0  0  0  0  0  0
   38.6183   31.4722   12.5669 C   0  0  0  0  0  0  0  0  0  0  0  0
   39.9473   31.1780   12.4601 N   0  0  0  0  0  0  0  0  0  0  0  0
   36.9330   32.7865   11.3242 C   0  0  0  0  0  0  0  0  0  0  0  0
   36.2405   33.0819   10.1637 C   0  0  0  0  0  0  0  0  0  0  0  0
   36.3922   32.2814    9.0315 C   0  0  0  0  0  0  0  0  0  0  0  0
   37.2229   31.1615    9.0881 C   0  0  0  0  0  0  0  0  0  0  0  0
   37.9313   30.8529   10.2497 C   0  0  0  0  0  0  0  0  0  0  0  0
   35.7734   32.5931    7.7909 N   0  0  0  0  0  0  0  0  0  0  0  0
   33.9184   33.2106    6.5871 O   0  0  0  0  0  0  0  0  0  0  0  0
   34.1873   33.8006    8.7543 O   0  0  0  0  0  0  0  0  0  0  0  0
   33.1326   34.7909    8.6308 C   0  0  0  0  0  0  0  0  0  0  0  0
   39.6400   27.5428   11.1596 C   0  0  0  0  0  0  0  0  0  0  0  0
   38.4703   28.5402   11.1902 C   0  0  1  0  0  0  0  0  0  0  0  0
   38.7396   29.7068   10.3509 N   0  0  0  0  0  0  0  0  0  0  0  0
   37.1610   27.8739   10.8008 C   0  0  2  0  0  0  0  0  0  0  0  0
   36.9993   26.6847   11.3636 F   0  0  0  0  0  0  0  0  0  0  0  0
   37.0690   27.6818    9.4832 F   0  0  0  0  0  0  0  0  0  0  0  0
   36.1124   28.5988   11.1569 F   0  0  0  0  0  0  0  0  0  0  0  0
  1 16  1  0
  1 23  2  0
  2  3  1  6
  5  2  1  6
  3  7  1  0
  3 25  1  1
  4 23  1  0
  4 24  2  0
  4 25  1  0
  6  5  1  6
 38  6  1  6
  7 26  2  0
  7 28  1  0
  8 26  1  0
  8 27  2  0
  9 34  1  0
  9 35  2  0
  9 36  1  0
 10 27  1  0
 10 29  1  0
 10 33  2  0
 11 14  1  0
 12 13  2  0
 12 17  1  0
 13 14  1  0
 14 15  2  0
 15 16  1  0
 16 17  2  0
 17 18  1  0
 18 19  1  0
 18 22  1  0
 19 20  2  0
 20 21  1  0
 21 22  2  0
 27 28  1  0
 29 30  2  0
 30 31  1  0
 31 32  2  0
 31 34  1  0
 32 33  1  0
 33 40  1  0
 37 36  1  6
 38 39  1  0
 39 40  1  6
 39 41  1  0
 41 42  1  1
 41 43  1  0
 41 44  1  0
M  END
$$$$
