
     RDKit          3D

 44 48  0  0  0  0  0  0  0  0999 V2000
  -74.2215  106.6629   52.3213 C   0  0  0  0  0  0  0  0  0  0  0  0
  -72.9646  107.1978   51.1475 C   0  0  0  0  0  0  0  0  0  0  0  0
  -73.4677  106.7424   49.7635 C   0  0  1  0  0  0  0  0  0  0  0  0
  -75.6261  107.5956   50.4360 C   0  0  0  0  0  0  0  0  0  0  0  0
  -71.5204  106.6887   51.4917 C   0  0  0  0  0  0  0  0  0  0  0  0
  -70.4101  106.9064   50.4133 C   0  0  0  0  0  0  0  0  0  0  0  0
  -73.2723  105.2615   49.6165 C   0  0  0  0  0  0  0  0  0  0  0  0
  -73.1516  103.1695   50.0460 C   0  0  0  0  0  0  0  0  0  0  0  0
  -67.3833  100.9523   45.4445 C   0  0  0  0  0  0  0  0  0  0  0  0
  -71.2791  102.5958   48.3255 C   0  0  0  0  0  0  0  0  0  0  0  0
  -73.8925  102.0549   54.6046 Cl  0  0  0  0  0  0  0  0  0  0  0  0
  -73.5682  105.8022   55.9553 C   0  0  0  0  0  0  0  0  0  0  0  0
  -73.5977  104.4132   55.8919 C   0  0  0  0  0  0  0  0  0  0  0  0
  -73.8510  103.7970   54.6835 C   0  0  0  0  0  0  0  0  0  0  0  0
  -74.0843  104.5282   53.5342 C   0  0  0  0  0  0  0  0  0  0  0  0
  -74.0628  105.9288   53.5838 C   0  0  0  0  0  0  0  0  0  0  0  0
  -73.8136  106.5628   54.8150 C   0  0  0  0  0  0  0  0  0  0  0  0
  -73.8430  107.9871   54.9253 N   0  0  0  0  0  0  0  0  0  0  0  0
  -72.9465  108.9293   54.6096 C   0  0  0  0  0  0  0  0  0  0  0  0
  -73.3878  110.0974   54.9823 N   0  0  0  0  0  0  0  0  0  0  0  0
  -74.6087  109.8705   55.5278 N   0  0  0  0  0  0  0  0  0  0  0  0
  -74.8954  108.6059   55.5077 N   0  0  0  0  0  0  0  0  0  0  0  0
  -75.3817  106.9602   51.7503 C   0  0  0  0  0  0  0  0  0  0  0  0
  -76.5663  108.3829   50.2538 O   0  0  0  0  0  0  0  0  0  0  0  0
  -74.8103  107.2159   49.4269 N   0  0  0  0  0  0  0  0  0  0  0  0
  -73.7783  104.3384   50.4131 N   0  0  0  0  0  0  0  0  0  0  0  0
  -72.2811  103.4143   49.0071 C   0  0  0  0  0  0  0  0  0  0  0  0
  -72.3965  104.7488   48.7425 N   0  0  0  0  0  0  0  0  0  0  0  0
  -71.6446  101.3592   47.7893 C   0  0  0  0  0  0  0  0  0  0  0  0
  -70.7460  100.6255   47.0356 C   0  0  0  0  0  0  0  0  0  0  0  0
  -69.4578  101.1103   46.8093 C   0  0  0  0  0  0  0  0  0  0  0  0
  -69.0717  102.3258   47.3759 C   0  0  0  0  0  0  0  0  0  0  0  0
  -69.9677  103.0793   48.1347 C   0  0  0  0  0  0  0  0  0  0  0  0
  -68.5286  100.4385   45.9699 N   0  0  0  0  0  0  0  0  0  0  0  0
  -67.2664  102.0310   44.9012 O   0  0  0  0  0  0  0  0  0  0  0  0
  -66.3670  100.0914   45.6402 O   0  0  0  0  0  0  0  0  0  0  0  0
  -65.5607  100.3223   46.8254 C   0  0  0  0  0  0  0  0  0  0  0  0
  -69.1817  105.9787   50.5181 C   0  0  0  0  0  0  0  0  0  0  0  0
  -69.4673  104.5027   50.1956 C   0  0  1  0  0  0  0  0  0  0  0  0
  -69.5937  104.2843   48.7554 N   0  0  0  0  0  0  0  0  0  0  0  0
  -68.4148  103.5878   50.7996 C   0  0  2  0  0  0  0  0  0  0  0  0
  -68.7306  102.3039   50.7048 F   0  0  0  0  0  0  0  0  0  0  0  0
  -68.2230  103.8329   52.0976 F   0  0  0  0  0  0  0  0  0  0  0  0
  -67.2400  103.7259   50.2056 F   0  0  0  0  0  0  0  0  0  0  0  0
  1 16  1  0
  1 23  2  0
  2  3  1  6
  5  2  1  6
  3  7  1  0
  3 25  1  1
  4 23  1  0
  4 24  2  0
  4 25  1  0
  6  5  1  6
 38  6  1  6
  7 26  2  0
  7 28  1  0
  8 26  1  0
  8 27  2  0
  9 34  1  0
  9 35  2  0
  9 36  1  0
 10 27  1  0
 10 29  1  0
 10 33  2  0
 11 14  1  0
 12 13  2  0
 12 17  1  0
 13 14  1  0
 14 15  2  0
 15 16  1  0
 16 17  2  0
 17 18  1  0
 18 19  1  0
 18 22  1  0
 19 20  2  0
 20 21  1  0
 21 22  2  0
 27 28  1  0
 29 30  2  0
 30 31  1  0
 31 32  2  0
 31 34  1  0
 32 33  1  0
 33 40  1  0
 37 36  1  6
 38 39  1  0
 39 40  1  6
 39 41  1  0
 41 42  1  1
 41 43  1  0
 41 44  1  0
M  END
$$$$
