
     RDKit          3D

 44 48  0  0  0  0  0  0  0  0999 V2000
  -48.6013   46.1746  -52.4405 C   0  0  0  0  0  0  0  0  0  0  0  0
  -47.1021   45.4722  -49.3966 C   0  0  0  0  0  0  0  0  0  0  0  0
  -47.8553   44.6370  -50.4508 C   0  0  1  0  0  0  0  0  0  0  0  0
  -47.3582   43.9904  -52.7253 C   0  0  0  0  0  0  0  0  0  0  0  0
  -48.0454   46.1693  -48.3537 C   0  0  0  0  0  0  0  0  0  0  0  0
  -49.1306   45.2796  -47.6653 C   0  0  0  0  0  0  0  0  0  0  0  0
  -48.9586   45.4579  -51.0523 C   0  0  0  0  0  0  0  0  0  0  0  0
  -50.0803   47.1022  -51.8355 C   0  0  0  0  0  0  0  0  0  0  0  0
  -57.6047   46.5695  -51.3274 C   0  0  0  0  0  0  0  0  0  0  0  0
  -52.4364   46.2630  -51.1004 C   0  0  0  0  0  0  0  0  0  0  0  0
  -53.3069   45.9625  -54.5304 Cl  0  0  0  0  0  0  0  0  0  0  0  0
  -51.8692   47.6447  -51.2024 C   0  0  0  0  0  0  0  0  0  0  0  0
  -52.7308   47.2195  -52.2080 C   0  0  0  0  0  0  0  0  0  0  0  0
  -52.2271   46.4920  -53.2667 C   0  0  0  0  0  0  0  0  0  0  0  0
  -50.8834   46.1817  -53.3563 C   0  0  0  0  0  0  0  0  0  0  0  0
  -50.0022   46.6077  -52.3530 C   0  0  0  0  0  0  0  0  0  0  0  0
  -50.5087   47.3575  -51.2752 C   0  0  0  0  0  0  0  0  0  0  0  0
  -49.6382   47.8650  -50.2621 N   0  0  0  0  0  0  0  0  0  0  0  0
  -49.7127   47.8491  -48.9260 C   0  0  0  0  0  0  0  0  0  0  0  0
  -48.7196   48.5264  -48.4230 N   0  0  0  0  0  0  0  0  0  0  0  0
  -47.9950   48.9572  -49.4856 N   0  0  0  0  0  0  0  0  0  0  0  0
  -48.5369   48.5741  -50.5997 N   0  0  0  0  0  0  0  0  0  0  0  0
  -48.1601   45.1542  -53.1648 C   0  0  0  0  0  0  0  0  0  0  0  0
  -47.0958   43.0497  -53.4891 O   0  0  0  0  0  0  0  0  0  0  0  0
  -46.9873   43.9760  -51.4253 N   0  0  0  0  0  0  0  0  0  0  0  0
  -48.8044   46.6131  -51.6721 N   0  0  0  0  0  0  0  0  0  0  0  0
  -50.9915   46.2078  -51.3188 C   0  0  0  0  0  0  0  0  0  0  0  0
  -50.2490   45.1633  -50.8478 N   0  0  0  0  0  0  0  0  0  0  0  0
  -53.2846   46.5850  -52.1621 C   0  0  0  0  0  0  0  0  0  0  0  0
  -54.6581   46.5233  -52.0095 C   0  0  0  0  0  0  0  0  0  0  0  0
  -55.2132   46.1458  -50.7866 C   0  0  0  0  0  0  0  0  0  0  0  0
  -54.3730   45.8623  -49.7090 C   0  0  0  0  0  0  0  0  0  0  0  0
  -52.9859   45.9158  -49.8484 C   0  0  0  0  0  0  0  0  0  0  0  0
  -56.6128   45.9811  -50.6049 N   0  0  0  0  0  0  0  0  0  0  0  0
  -57.4946   47.0459  -52.4380 O   0  0  0  0  0  0  0  0  0  0  0  0
  -58.7591   46.5238  -50.6364 O   0  0  0  0  0  0  0  0  0  0  0  0
  -59.9626   46.3325  -51.4258 C   0  0  0  0  0  0  0  0  0  0  0  0
  -50.3406   46.0334  -47.0748 C   0  0  0  0  0  0  0  0  0  0  0  0
  -51.2644   46.6769  -48.1220 C   0  0  1  0  0  0  0  0  0  0  0  0
  -52.1157   45.6800  -48.7694 N   0  0  0  0  0  0  0  0  0  0  0  0
  -52.0935   47.7982  -47.5178 C   0  0  2  0  0  0  0  0  0  0  0  0
  -51.3637   48.8460  -47.1618 F   0  0  0  0  0  0  0  0  0  0  0  0
  -52.7459   47.4046  -46.4219 F   0  0  0  0  0  0  0  0  0  0  0  0
  -53.0045   48.2509  -48.3647 F   0  0  0  0  0  0  0  0  0  0  0  0
  1 16  1  0
  1 23  2  0
  2  3  1  6
  5  2  1  6
  3  7  1  0
  3 25  1  6
  4 23  1  0
  4 24  2  0
  4 25  1  0
  6  5  1  6
 38  6  1  6
  7 26  2  0
  7 28  1  0
  8 26  1  0
  8 27  2  0
  9 34  1  0
  9 35  2  0
  9 36  1  0
 10 27  1  0
 10 29  1  0
 10 33  2  0
 11 14  1  0
 12 13  2  0
 12 17  1  0
 13 14  1  0
 14 15  2  0
 15 16  1  0
 16 17  2  0
 17 18  1  0
 18 19  1  0
 18 22  1  0
 19 20  2  0
 20 21  1  0
 21 22  2  0
 27 28  1  0
 29 30  2  0
 30 31  1  0
 31 32  2  0
 31 34  1  0
 32 33  1  0
 33 40  1  0
 37 36  1  6
 38 39  1  0
 39 40  1  1
 39 41  1  0
 41 42  1  1
 41 43  1  0
 41 44  1  0
M  END
$$$$
