
     RDKit          3D

  9 10  0  0  0  0  0  0  0  0999 V2000
-2566.4238 1126.4618-3639.9875 C   0  0  0  0  0  0  0  0  0  0  0  0
-2566.9819 1126.9343-3638.7878 C   0  0  0  0  0  0  0  0  0  0  0  0
-2568.3728 1126.9672-3638.6655 C   0  0  0  0  0  0  0  0  0  0  0  0
-2569.1677 1126.5381-3639.7173 C   0  0  0  0  0  0  0  0  0  0  0  0
-2568.5952 1126.0763-3640.8943 C   0  0  0  0  0  0  0  0  0  0  0  0
-2567.2166 1126.0325-3641.0459 C   0  0  0  0  0  0  0  0  0  0  0  0
-2565.0754 1126.5349-3639.8389 N   0  0  0  0  0  0  0  0  0  0  0  0
-2565.8618 1127.2661-3637.9827 C   0  0  0  0  0  0  0  0  0  0  0  0
-2564.7302 1127.0261-3638.6125 N   0  0  0  0  0  0  0  0  0  0  0  0
  1  2  1  0
  1  6  2  0
  1  7  1  0
  2  3  2  0
  2  8  1  0
  3  4  1  0
  4  5  2  0
  5  6  1  0
  7  9  1  0
  8  9  2  0
M  END
$$$$
