
     RDKit          3D

  9 10  0  0  0  0  0  0  0  0999 V2000
 -465.2300 3744.7424 -868.3983 C   0  0  0  0  0  0  0  0  0  0  0  0
 -466.4946 3744.9338 -868.9803 C   0  0  0  0  0  0  0  0  0  0  0  0
 -467.6306 3744.6562 -868.2164 C   0  0  0  0  0  0  0  0  0  0  0  0
 -467.4909 3744.2031 -866.9132 C   0  0  0  0  0  0  0  0  0  0  0  0
 -466.2318 3744.0210 -866.3590 C   0  0  0  0  0  0  0  0  0  0  0  0
 -465.0855 3744.2876 -867.0934 C   0  0  0  0  0  0  0  0  0  0  0  0
 -464.3160 3745.0833 -869.3453 N   0  0  0  0  0  0  0  0  0  0  0  0
 -466.2151 3745.3953 -870.2924 C   0  0  0  0  0  0  0  0  0  0  0  0
 -464.9177 3745.4836 -870.5033 N   0  0  0  0  0  0  0  0  0  0  0  0
  1  2  1  0
  1  6  2  0
  1  7  1  0
  2  3  2  0
  2  8  1  0
  3  4  1  0
  4  5  2  0
  5  6  1  0
  7  9  1  0
  8  9  2  0
M  END
$$$$
