
     RDKit          3D

  9 10  0  0  0  0  0  0  0  0999 V2000
  -33.1063  -18.2119   43.9679 C   0  0  0  0  0  0  0  0  0  0  0  0
  -32.2411  -17.1124   43.8378 C   0  0  0  0  0  0  0  0  0  0  0  0
  -32.0783  -16.2574   44.9304 C   0  0  0  0  0  0  0  0  0  0  0  0
  -32.7649  -16.5067   46.1088 C   0  0  0  0  0  0  0  0  0  0  0  0
  -33.6154  -17.5981   46.2144 C   0  0  0  0  0  0  0  0  0  0  0  0
  -33.7978  -18.4642   45.1463 C   0  0  0  0  0  0  0  0  0  0  0  0
  -33.0769  -18.8664   42.7766 N   0  0  0  0  0  0  0  0  0  0  0  0
  -31.7426  -17.2080   42.5128 C   0  0  0  0  0  0  0  0  0  0  0  0
  -32.2430  -18.2535   41.8867 N   0  0  0  0  0  0  0  0  0  0  0  0
  1  2  1  0
  1  6  2  0
  1  7  1  0
  2  3  2  0
  2  8  1  0
  3  4  1  0
  4  5  2  0
  5  6  1  0
  7  9  1  0
  8  9  2  0
M  END
$$$$
