
     RDKit          3D

  9 10  0  0  0  0  0  0  0  0999 V2000
 1244.6542 -559.0458 -671.4571 C   0  0  0  0  0  0  0  0  0  0  0  0
 1245.9354 -558.9810 -670.8843 C   0  0  0  0  0  0  0  0  0  0  0  0
 1247.0457 -558.9506 -671.7321 C   0  0  0  0  0  0  0  0  0  0  0  0
 1246.8641 -558.9838 -673.1063 C   0  0  0  0  0  0  0  0  0  0  0  0
 1245.5887 -559.0490 -673.6497 C   0  0  0  0  0  0  0  0  0  0  0  0
 1244.4681 -559.0815 -672.8334 C   0  0  0  0  0  0  0  0  0  0  0  0
 1243.7721 -559.0614 -670.4225 N   0  0  0  0  0  0  0  0  0  0  0  0
 1245.6987 -558.9622 -669.4854 C   0  0  0  0  0  0  0  0  0  0  0  0
 1244.4100 -559.0098 -669.2169 N   0  0  0  0  0  0  0  0  0  0  0  0
  1  2  1  0
  1  6  2  0
  1  7  1  0
  2  3  2  0
  2  8  1  0
  3  4  1  0
  4  5  2  0
  5  6  1  0
  7  9  1  0
  8  9  2  0
M  END
$$$$
