
     RDKit          3D

  9 10  0  0  0  0  0  0  0  0999 V2000
  999.6879-1976.4478 1889.1176 C   0  0  0  0  0  0  0  0  0  0  0  0
 1001.0782-1976.2483 1889.0729 C   0  0  0  0  0  0  0  0  0  0  0  0
 1001.5908-1975.3177 1888.1659 C   0  0  0  0  0  0  0  0  0  0  0  0
 1000.7286-1974.6160 1887.3375 C   0  0  0  0  0  0  0  0  0  0  0  0
  999.3589-1974.8300 1887.3983 C   0  0  0  0  0  0  0  0  0  0  0  0
  998.8207-1975.7483 1888.2876 C   0  0  0  0  0  0  0  0  0  0  0  0
  999.4661-1977.3896 1890.0726 N   0  0  0  0  0  0  0  0  0  0  0  0
 1001.5952-1977.1328 1890.0547 C   0  0  0  0  0  0  0  0  0  0  0  0
 1000.6315-1977.8085 1890.6464 N   0  0  0  0  0  0  0  0  0  0  0  0
  1  2  1  0
  1  6  2  0
  1  7  1  0
  2  3  2  0
  2  8  1  0
  3  4  1  0
  4  5  2  0
  5  6  1  0
  7  9  1  0
  8  9  2  0
M  END
$$$$
