
     RDKit          3D

  9 10  0  0  0  0  0  0  0  0999 V2000
 -634.7357 2747.3826  612.7437 C   0  0  0  0  0  0  0  0  0  0  0  0
 -635.4932 2748.2012  613.5977 C   0  0  0  0  0  0  0  0  0  0  0  0
 -635.5475 2749.5720  613.3345 C   0  0  0  0  0  0  0  0  0  0  0  0
 -634.8611 2750.0928  612.2480 C   0  0  0  0  0  0  0  0  0  0  0  0
 -634.1177 2749.2644  611.4181 C   0  0  0  0  0  0  0  0  0  0  0  0
 -634.0448 2747.8999  611.6548 C   0  0  0  0  0  0  0  0  0  0  0  0
 -634.8560 2746.1150  613.2209 N   0  0  0  0  0  0  0  0  0  0  0  0
 -636.0292 2747.3083  614.5616 C   0  0  0  0  0  0  0  0  0  0  0  0
 -635.6467 2746.0686  614.3320 N   0  0  0  0  0  0  0  0  0  0  0  0
  1  2  1  0
  1  6  2  0
  1  7  1  0
  2  3  2  0
  2  8  1  0
  3  4  1  0
  4  5  2  0
  5  6  1  0
  7  9  1  0
  8  9  2  0
M  END
$$$$
