
     RDKit          3D

  9 10  0  0  0  0  0  0  0  0999 V2000
 3311.6633  792.6051-2261.9121 C   0  0  0  0  0  0  0  0  0  0  0  0
 3312.5073  791.4835-2261.8481 C   0  0  0  0  0  0  0  0  0  0  0  0
 3312.4033  790.5106-2262.8447 C   0  0  0  0  0  0  0  0  0  0  0  0
 3311.4805  790.6680-2263.8672 C   0  0  0  0  0  0  0  0  0  0  0  0
 3310.6560  791.7837-2263.9104 C   0  0  0  0  0  0  0  0  0  0  0  0
 3310.7361  792.7656-2262.9346 C   0  0  0  0  0  0  0  0  0  0  0  0
 3311.9717  793.3796-2260.8379 N   0  0  0  0  0  0  0  0  0  0  0  0
 3313.2876  791.6938-2260.6812 C   0  0  0  0  0  0  0  0  0  0  0  0
 3312.9648  792.8232-2260.0854 N   0  0  0  0  0  0  0  0  0  0  0  0
  1  2  1  0
  1  6  2  0
  1  7  1  0
  2  3  2  0
  2  8  1  0
  3  4  1  0
  4  5  2  0
  5  6  1  0
  7  9  1  0
  8  9  2  0
M  END
$$$$
