
     RDKit          3D

  9 10  0  0  0  0  0  0  0  0999 V2000
 -231.1754   36.4259 -121.8508 C   0  0  0  0  0  0  0  0  0  0  0  0
 -230.0780   36.3909 -122.7276 C   0  0  0  0  0  0  0  0  0  0  0  0
 -229.8527   35.2293 -123.4701 C   0  0  0  0  0  0  0  0  0  0  0  0
 -230.7062   34.1457 -123.3301 C   0  0  0  0  0  0  0  0  0  0  0  0
 -231.7833   34.2020 -122.4569 C   0  0  0  0  0  0  0  0  0  0  0  0
 -232.0318   35.3415 -121.7059 C   0  0  0  0  0  0  0  0  0  0  0  0
 -231.1609   37.6534 -121.2666 N   0  0  0  0  0  0  0  0  0  0  0  0
 -229.4699   37.6651 -122.5859 C   0  0  0  0  0  0  0  0  0  0  0  0
 -230.1187   38.4117 -121.7158 N   0  0  0  0  0  0  0  0  0  0  0  0
  1  2  1  0
  1  6  2  0
  1  7  1  0
  2  3  2  0
  2  8  1  0
  3  4  1  0
  4  5  2  0
  5  6  1  0
  7  9  1  0
  8  9  2  0
M  END
$$$$
