
     RDKit          3D

  9 10  0  0  0  0  0  0  0  0999 V2000
 1474.1559-2673.4197 2906.2483 C   0  0  0  0  0  0  0  0  0  0  0  0
 1474.1129-2674.6174 2905.5139 C   0  0  0  0  0  0  0  0  0  0  0  0
 1473.8376-2674.5530 2904.1460 C   0  0  0  0  0  0  0  0  0  0  0  0
 1473.6166-2673.3230 2903.5447 C   0  0  0  0  0  0  0  0  0  0  0  0
 1473.6627-2672.1526 2904.2893 C   0  0  0  0  0  0  0  0  0  0  0  0
 1473.9325-2672.1855 2905.6499 C   0  0  0  0  0  0  0  0  0  0  0  0
 1474.4399-2673.7661 2907.5322 N   0  0  0  0  0  0  0  0  0  0  0  0
 1474.3882-2675.6292 2906.4695 C   0  0  0  0  0  0  0  0  0  0  0  0
 1474.5824-2675.1167 2907.6670 N   0  0  0  0  0  0  0  0  0  0  0  0
  1  2  1  0
  1  6  2  0
  1  7  1  0
  2  3  2  0
  2  8  1  0
  3  4  1  0
  4  5  2  0
  5  6  1  0
  7  9  1  0
  8  9  2  0
M  END
$$$$
