
     RDKit          3D

  9 10  0  0  0  0  0  0  0  0999 V2000
-1957.4028 2982.5234  668.3741 C   0  0  0  0  0  0  0  0  0  0  0  0
-1956.3369 2982.7954  669.2492 C   0  0  0  0  0  0  0  0  0  0  0  0
-1956.2576 2984.0623  669.8323 C   0  0  0  0  0  0  0  0  0  0  0  0
-1957.2196 2985.0166  669.5405 C   0  0  0  0  0  0  0  0  0  0  0  0
-1958.2626 2984.7273  668.6723 C   0  0  0  0  0  0  0  0  0  0  0  0
-1958.3677 2983.4780  668.0775 C   0  0  0  0  0  0  0  0  0  0  0  0
-1957.2408 2981.2390  667.9591 N   0  0  0  0  0  0  0  0  0  0  0  0
-1955.5913 2981.5889  669.2849 C   0  0  0  0  0  0  0  0  0  0  0  0
-1956.1337 2980.6667  668.5157 N   0  0  0  0  0  0  0  0  0  0  0  0
  1  2  1  0
  1  6  2  0
  1  7  1  0
  2  3  2  0
  2  8  1  0
  3  4  1  0
  4  5  2  0
  5  6  1  0
  7  9  1  0
  8  9  2  0
M  END
$$$$
