
     RDKit          3D

  9 10  0  0  0  0  0  0  0  0999 V2000
 3529.7524 -152.0530-1016.3883 C   0  0  0  0  0  0  0  0  0  0  0  0
 3529.0874 -153.1777-1015.8719 C   0  0  0  0  0  0  0  0  0  0  0  0
 3527.7434 -153.0540-1015.5144 C   0  0  0  0  0  0  0  0  0  0  0  0
 3527.0967 -151.8379-1015.6738 C   0  0  0  0  0  0  0  0  0  0  0  0
 3527.7739 -150.7393-1016.1851 C   0  0  0  0  0  0  0  0  0  0  0  0
 3529.1094 -150.8319-1016.5480 C   0  0  0  0  0  0  0  0  0  0  0  0
 3531.0271 -152.4468-1016.6499 N   0  0  0  0  0  0  0  0  0  0  0  0
 3530.0715 -154.2010-1015.8687 C   0  0  0  0  0  0  0  0  0  0  0  0
 3531.2227 -153.7599-1016.3329 N   0  0  0  0  0  0  0  0  0  0  0  0
  1  2  1  0
  1  6  2  0
  1  7  1  0
  2  3  2  0
  2  8  1  0
  3  4  1  0
  4  5  2  0
  5  6  1  0
  7  9  1  0
  8  9  2  0
M  END
$$$$
