
     RDKit          3D

  9 10  0  0  0  0  0  0  0  0999 V2000
 -252.4102-2005.9581  539.2156 C   0  0  0  0  0  0  0  0  0  0  0  0
 -251.1868-2005.6782  538.5838 C   0  0  0  0  0  0  0  0  0  0  0  0
 -250.0031-2005.9017  539.2909 C   0  0  0  0  0  0  0  0  0  0  0  0
 -250.0568-2006.3898  540.5875 C   0  0  0  0  0  0  0  0  0  0  0  0
 -251.2766-2006.6581  541.1924 C   0  0  0  0  0  0  0  0  0  0  0  0
 -252.4686-2006.4449  540.5155 C   0  0  0  0  0  0  0  0  0  0  0  0
 -253.3843-2005.6567  538.3162 N   0  0  0  0  0  0  0  0  0  0  0  0
 -251.5520-2005.2107  537.2949 C   0  0  0  0  0  0  0  0  0  0  0  0
 -252.8604-2005.2003  537.1415 N   0  0  0  0  0  0  0  0  0  0  0  0
  1  2  1  0
  1  6  2  0
  1  7  1  0
  2  3  2  0
  2  8  1  0
  3  4  1  0
  4  5  2  0
  5  6  1  0
  7  9  1  0
  8  9  2  0
M  END
$$$$
