
     RDKit          3D

  9 10  0  0  0  0  0  0  0  0999 V2000
  -48.1854  197.3727  140.8383 C   0  0  0  0  0  0  0  0  0  0  0  0
  -49.2601  196.6876  141.4300 C   0  0  0  0  0  0  0  0  0  0  0  0
  -49.3392  195.3022  141.2691 C   0  0  0  0  0  0  0  0  0  0  0  0
  -48.3672  194.6369  140.5376 C   0  0  0  0  0  0  0  0  0  0  0  0
  -47.3152  195.3343  139.9608 C   0  0  0  0  0  0  0  0  0  0  0  0
  -47.2105  196.7102  140.1028 C   0  0  0  0  0  0  0  0  0  0  0  0
  -48.3502  198.6861  141.1486 N   0  0  0  0  0  0  0  0  0  0  0  0
  -50.0140  197.7009  142.0766 C   0  0  0  0  0  0  0  0  0  0  0  0
  -49.4677  198.8874  141.9059 N   0  0  0  0  0  0  0  0  0  0  0  0
  1  2  1  0
  1  6  2  0
  1  7  1  0
  2  3  2  0
  2  8  1  0
  3  4  1  0
  4  5  2  0
  5  6  1  0
  7  9  1  0
  8  9  2  0
M  END
$$$$
