
     RDKit          3D

  9 10  0  0  0  0  0  0  0  0999 V2000
  591.5106 -657.6870  530.4472 C   0  0  0  0  0  0  0  0  0  0  0  0
  591.5275 -657.5674  529.0474 C   0  0  0  0  0  0  0  0  0  0  0  0
  592.6370 -656.9734  528.4408 C   0  0  0  0  0  0  0  0  0  0  0  0
  593.6882 -656.5190  529.2220 C   0  0  0  0  0  0  0  0  0  0  0  0
  593.6495 -656.6463  530.6033 C   0  0  0  0  0  0  0  0  0  0  0  0
  592.5612 -657.2308  531.2339 C   0  0  0  0  0  0  0  0  0  0  0  0
  590.3357 -658.2922  530.7665 N   0  0  0  0  0  0  0  0  0  0  0  0
  590.2992 -658.1403  528.6274 C   0  0  0  0  0  0  0  0  0  0  0  0
  589.5950 -658.5701  529.6544 N   0  0  0  0  0  0  0  0  0  0  0  0
  1  2  1  0
  1  6  2  0
  1  7  1  0
  2  3  2  0
  2  8  1  0
  3  4  1  0
  4  5  2  0
  5  6  1  0
  7  9  1  0
  8  9  2  0
M  END
$$$$
