
     RDKit          3D

  9 10  0  0  0  0  0  0  0  0999 V2000
  317.4704  -43.6525  350.2608 C   0  0  0  0  0  0  0  0  0  0  0  0
  316.5637  -42.6815  349.8033 C   0  0  0  0  0  0  0  0  0  0  0  0
  317.0213  -41.3748  349.6176 C   0  0  0  0  0  0  0  0  0  0  0  0
  318.3459  -41.0641  349.8844 C   0  0  0  0  0  0  0  0  0  0  0  0
  319.2236  -42.0391  350.3368 C   0  0  0  0  0  0  0  0  0  0  0  0
  318.7982  -43.3450  350.5314 C   0  0  0  0  0  0  0  0  0  0  0  0
  316.7736  -44.8165  350.3502 N   0  0  0  0  0  0  0  0  0  0  0  0
  315.3399  -43.3830  349.6503 C   0  0  0  0  0  0  0  0  0  0  0  0
  315.4712  -44.6526  349.9766 N   0  0  0  0  0  0  0  0  0  0  0  0
  1  2  1  0
  1  6  2  0
  1  7  1  0
  2  3  2  0
  2  8  1  0
  3  4  1  0
  4  5  2  0
  5  6  1  0
  7  9  1  0
  8  9  2  0
M  END
$$$$
