
     RDKit          3D

  9 10  0  0  0  0  0  0  0  0999 V2000
  677.2000  502.8989 3579.5803 C   0  0  0  0  0  0  0  0  0  0  0  0
  676.3114  502.1869 3578.7576 C   0  0  0  0  0  0  0  0  0  0  0  0
  676.1105  500.8275 3579.0095 C   0  0  0  0  0  0  0  0  0  0  0  0
  676.7839  500.2141 3580.0549 C   0  0  0  0  0  0  0  0  0  0  0  0
  677.6583  500.9370 3580.8545 C   0  0  0  0  0  0  0  0  0  0  0  0
  677.8782  502.2875 3580.6279 C   0  0  0  0  0  0  0  0  0  0  0  0
  677.2052  504.1789 3579.1223 N   0  0  0  0  0  0  0  0  0  0  0  0
  675.8365  503.1503 3577.8306 C   0  0  0  0  0  0  0  0  0  0  0  0
  676.3717  504.3335 3578.0532 N   0  0  0  0  0  0  0  0  0  0  0  0
  1  2  1  0
  1  6  2  0
  1  7  1  0
  2  3  2  0
  2  8  1  0
  3  4  1  0
  4  5  2  0
  5  6  1  0
  7  9  1  0
  8  9  2  0
M  END
$$$$
