
     RDKit          3D

  9 10  0  0  0  0  0  0  0  0999 V2000
 3069.2754 3817.0420 -837.0912 C   0  0  0  0  0  0  0  0  0  0  0  0
 3069.0042 3817.7310 -838.2851 C   0  0  0  0  0  0  0  0  0  0  0  0
 3070.0762 3818.1138 -839.0945 C   0  0  0  0  0  0  0  0  0  0  0  0
 3071.3730 3817.8074 -838.7104 C   0  0  0  0  0  0  0  0  0  0  0  0
 3071.6174 3817.1262 -837.5259 C   0  0  0  0  0  0  0  0  0  0  0  0
 3070.5730 3816.7351 -836.7014 C   0  0  0  0  0  0  0  0  0  0  0  0
 3068.0720 3816.7944 -836.5089 N   0  0  0  0  0  0  0  0  0  0  0  0
 3067.5903 3817.8438 -838.3166 C   0  0  0  0  0  0  0  0  0  0  0  0
 3067.0413 3817.2844 -837.2579 N   0  0  0  0  0  0  0  0  0  0  0  0
  1  2  1  0
  1  6  2  0
  1  7  1  0
  2  3  2  0
  2  8  1  0
  3  4  1  0
  4  5  2  0
  5  6  1  0
  7  9  1  0
  8  9  2  0
M  END
$$$$
