
     RDKit          3D

  9 10  0  0  0  0  0  0  0  0999 V2000
 2080.6104 1520.7141-1595.7938 C   0  0  0  0  0  0  0  0  0  0  0  0
 2080.0762 1521.9924-1596.0306 C   0  0  0  0  0  0  0  0  0  0  0  0
 2078.8164 1522.0913-1596.6241 C   0  0  0  0  0  0  0  0  0  0  0  0
 2078.1233 1520.9397-1596.9647 C   0  0  0  0  0  0  0  0  0  0  0  0
 2078.6694 1519.6874-1596.7231 C   0  0  0  0  0  0  0  0  0  0  0  0
 2079.9192 1519.5579-1596.1357 C   0  0  0  0  0  0  0  0  0  0  0  0
 2081.8254 1520.9062-1595.2158 N   0  0  0  0  0  0  0  0  0  0  0  0
 2081.0688 1522.8851-1595.5492 C   0  0  0  0  0  0  0  0  0  0  0  0
 2082.1060 1522.2333-1595.0654 N   0  0  0  0  0  0  0  0  0  0  0  0
  1  2  1  0
  1  6  2  0
  1  7  1  0
  2  3  2  0
  2  8  1  0
  3  4  1  0
  4  5  2  0
  5  6  1  0
  7  9  1  0
  8  9  2  0
M  END
$$$$
