
     RDKit          3D

  9 10  0  0  0  0  0  0  0  0999 V2000
  174.0520  -45.8258   85.9832 C   0  0  0  0  0  0  0  0  0  0  0  0
  173.3392  -44.6461   85.7101 C   0  0  0  0  0  0  0  0  0  0  0  0
  173.0253  -44.3473   84.3821 C   0  0  0  0  0  0  0  0  0  0  0  0
  173.4176  -45.2103   83.3704 C   0  0  0  0  0  0  0  0  0  0  0  0
  174.1221  -46.3695   83.6633 C   0  0  0  0  0  0  0  0  0  0  0  0
  174.4489  -46.6922   84.9722 C   0  0  0  0  0  0  0  0  0  0  0  0
  174.2185  -45.8701   87.3317 N   0  0  0  0  0  0  0  0  0  0  0  0
  173.1295  -44.0555   86.9831 C   0  0  0  0  0  0  0  0  0  0  0  0
  173.6544  -44.7884   87.9437 N   0  0  0  0  0  0  0  0  0  0  0  0
  1  2  1  0
  1  6  2  0
  1  7  1  0
  2  3  2  0
  2  8  1  0
  3  4  1  0
  4  5  2  0
  5  6  1  0
  7  9  1  0
  8  9  2  0
M  END
$$$$
