
     RDKit          3D

  9 10  0  0  0  0  0  0  0  0999 V2000
-1023.2400-3214.1094  109.9038 C   0  0  0  0  0  0  0  0  0  0  0  0
-1023.2728-3212.7710  109.4774 C   0  0  0  0  0  0  0  0  0  0  0  0
-1022.0785-3212.1692  109.0751 C   0  0  0  0  0  0  0  0  0  0  0  0
-1020.8973-3212.8945  109.1030 C   0  0  0  0  0  0  0  0  0  0  0  0
-1020.8887-3214.2146  109.5293 C   0  0  0  0  0  0  0  0  0  0  0  0
-1022.0586-3214.8394  109.9354 C   0  0  0  0  0  0  0  0  0  0  0  0
-1024.5182-3214.4387  110.2307 N   0  0  0  0  0  0  0  0  0  0  0  0
-1024.6365-3212.3948  109.5916 C   0  0  0  0  0  0  0  0  0  0  0  0
-1025.3724-3213.3918  110.0397 N   0  0  0  0  0  0  0  0  0  0  0  0
  1  2  1  0
  1  6  2  0
  1  7  1  0
  2  3  2  0
  2  8  1  0
  3  4  1  0
  4  5  2  0
  5  6  1  0
  7  9  1  0
  8  9  2  0
M  END
$$$$
