
     RDKit          3D

  9 10  0  0  0  0  0  0  0  0999 V2000
  234.4765   74.0087   36.9111 C   0  0  0  0  0  0  0  0  0  0  0  0
  235.5813   74.0941   36.0472 C   0  0  0  0  0  0  0  0  0  0  0  0
  236.6242   74.9620   36.3798 C   0  0  0  0  0  0  0  0  0  0  0  0
  236.5508   75.7137   37.5426 C   0  0  0  0  0  0  0  0  0  0  0  0
  235.4491   75.6141   38.3806 C   0  0  0  0  0  0  0  0  0  0  0  0
  234.3981   74.7616   38.0762 C   0  0  0  0  0  0  0  0  0  0  0  0
  233.6255   73.1044   36.3576 N   0  0  0  0  0  0  0  0  0  0  0  0
  235.2818   73.1877   34.9974 C   0  0  0  0  0  0  0  0  0  0  0  0
  234.1174   72.6018   35.1878 N   0  0  0  0  0  0  0  0  0  0  0  0
  1  2  1  0
  1  6  2  0
  1  7  1  0
  2  3  2  0
  2  8  1  0
  3  4  1  0
  4  5  2  0
  5  6  1  0
  7  9  1  0
  8  9  2  0
M  END
$$$$
