
     RDKit          3D

  9 10  0  0  0  0  0  0  0  0999 V2000
  898.9375 -585.5200 -101.8896 C   0  0  0  0  0  0  0  0  0  0  0  0
  899.4609 -586.8225 -101.9548 C   0  0  0  0  0  0  0  0  0  0  0  0
  900.6464 -587.1011 -101.2708 C   0  0  0  0  0  0  0  0  0  0  0  0
  901.2771 -586.0995 -100.5484 C   0  0  0  0  0  0  0  0  0  0  0  0
  900.7426 -584.8200 -100.4989 C   0  0  0  0  0  0  0  0  0  0  0  0
  899.5673 -584.5132 -101.1687 C   0  0  0  0  0  0  0  0  0  0  0  0
  897.7976 -585.5270 -102.6305 N   0  0  0  0  0  0  0  0  0  0  0  0
  898.5427 -587.5332 -102.7706 C   0  0  0  0  0  0  0  0  0  0  0  0
  897.5555 -586.7574 -103.1690 N   0  0  0  0  0  0  0  0  0  0  0  0
  1  2  1  0
  1  6  2  0
  1  7  1  0
  2  3  2  0
  2  8  1  0
  3  4  1  0
  4  5  2  0
  5  6  1  0
  7  9  1  0
  8  9  2  0
M  END
$$$$
