
     RDKit          3D

  9 10  0  0  0  0  0  0  0  0999 V2000
 3751.6904 3671.3914-2010.9663 C   0  0  0  0  0  0  0  0  0  0  0  0
 3752.7646 3670.5583-2011.3203 C   0  0  0  0  0  0  0  0  0  0  0  0
 3752.5286 3669.1887-2011.4648 C   0  0  0  0  0  0  0  0  0  0  0  0
 3751.2542 3668.6836-2011.2585 C   0  0  0  0  0  0  0  0  0  0  0  0
 3750.2080 3669.5256-2010.9067 C   0  0  0  0  0  0  0  0  0  0  0  0
 3750.4121 3670.8892-2010.7561 C   0  0  0  0  0  0  0  0  0  0  0  0
 3752.1902 3672.6543-2010.8967 N   0  0  0  0  0  0  0  0  0  0  0  0
 3753.8716 3671.4370-2011.4402 C   0  0  0  0  0  0  0  0  0  0  0  0
 3753.5239 3672.6821-2011.1875 N   0  0  0  0  0  0  0  0  0  0  0  0
  1  2  1  0
  1  6  2  0
  1  7  1  0
  2  3  2  0
  2  8  1  0
  3  4  1  0
  4  5  2  0
  5  6  1  0
  7  9  1  0
  8  9  2  0
M  END
$$$$
