
     RDKit          3D

  9 10  0  0  0  0  0  0  0  0999 V2000
 -802.3125 -882.5584  373.1029 C   0  0  0  0  0  0  0  0  0  0  0  0
 -802.7671 -881.2292  373.1071 C   0  0  0  0  0  0  0  0  0  0  0  0
 -802.3947 -880.3988  374.1667 C   0  0  0  0  0  0  0  0  0  0  0  0
 -801.5923 -880.8958  375.1826 C   0  0  0  0  0  0  0  0  0  0  0  0
 -801.1560 -882.2128  375.1585 C   0  0  0  0  0  0  0  0  0  0  0  0
 -801.5101 -883.0612  374.1198 C   0  0  0  0  0  0  0  0  0  0  0  0
 -802.8126 -883.1317  371.9761 N   0  0  0  0  0  0  0  0  0  0  0  0
 -803.5396 -881.1147  371.9223 C   0  0  0  0  0  0  0  0  0  0  0  0
 -803.5626 -882.2494  371.2536 N   0  0  0  0  0  0  0  0  0  0  0  0
  1  2  1  0
  1  6  2  0
  1  7  1  0
  2  3  2  0
  2  8  1  0
  3  4  1  0
  4  5  2  0
  5  6  1  0
  7  9  1  0
  8  9  2  0
M  END
$$$$
