
     RDKit          3D

  9 10  0  0  0  0  0  0  0  0999 V2000
 4002.0410-1755.0991 -770.8594 C   0  0  0  0  0  0  0  0  0  0  0  0
 4003.2871-1754.7015 -770.3468 C   0  0  0  0  0  0  0  0  0  0  0  0
 4003.4399-1754.6052 -768.9617 C   0  0  0  0  0  0  0  0  0  0  0  0
 4002.3721-1754.9005 -768.1282 C   0  0  0  0  0  0  0  0  0  0  0  0
 4001.1494-1755.2897 -768.6567 C   0  0  0  0  0  0  0  0  0  0  0  0
 4000.9673-1755.3939 -770.0283 C   0  0  0  0  0  0  0  0  0  0  0  0
 4002.1685-1755.1111 -772.2130 N   0  0  0  0  0  0  0  0  0  0  0  0
 4004.0955-1754.4998 -771.4955 C   0  0  0  0  0  0  0  0  0  0  0  0
 4003.4246-1754.7456 -772.6022 N   0  0  0  0  0  0  0  0  0  0  0  0
  1  2  1  0
  1  6  2  0
  1  7  1  0
  2  3  2  0
  2  8  1  0
  3  4  1  0
  4  5  2  0
  5  6  1  0
  7  9  1  0
  8  9  2  0
M  END
$$$$
