
     RDKit          3D

 18 19  0  0  0  0  0  0  0  0999 V2000
  179.8281  -38.1768   68.5150 N   0  0  0  0  0  0  0  0  0  0  0  0
  182.1308  -38.8720   68.1282 C   0  0  0  0  0  0  0  0  0  0  0  0
  181.0000  -38.8323   68.9422 C   0  0  0  0  0  0  0  0  0  0  0  0
  179.8000  -37.0928   67.7161 C   0  0  0  0  0  0  0  0  0  0  0  0
  180.9035  -37.0474   66.6766 C   0  0  0  0  0  0  0  0  0  0  0  0
  181.6234  -35.7217   66.7121 C   0  0  0  0  0  0  0  0  0  0  0  0
  181.8859  -33.5140   67.6482 C   0  0  0  0  0  0  0  0  0  0  0  0
  182.4872  -35.3704   65.6761 C   0  0  0  0  0  0  0  0  0  0  0  0
  184.1685  -33.7022   64.3820 Cl  0  0  0  0  0  0  0  0  0  0  0  0
  183.0316  -34.0985   65.6424 C   0  0  0  0  0  0  0  0  0  0  0  0
  182.7215  -33.1519   66.5995 C   0  0  0  0  0  0  0  0  0  0  0  0
  181.3536  -34.7917   67.7079 C   0  0  0  0  0  0  0  0  0  0  0  0
  178.9725  -36.1931   67.8275 O   0  0  0  0  0  0  0  0  0  0  0  0
  181.0089  -39.5408   70.1579 C   0  0  0  0  0  0  0  0  0  0  0  0
  179.8372  -39.5254   71.1042 C   0  0  0  0  0  0  0  0  0  0  0  0
  183.2272  -39.5744   68.4332 N   0  0  0  0  0  0  0  0  0  0  0  0
  183.2238  -40.2517   69.5879 C   0  0  0  0  0  0  0  0  0  0  0  0
  182.1572  -40.2645   70.4637 C   0  0  0  0  0  0  0  0  0  0  0  0
  1  3  1  0
  1  4  1  0
  2  3  2  0
  2 16  1  0
  3 14  1  0
  5  4  1  6
  4 13  2  0
  5  6  1  0
  6  8  1  0
  6 12  2  0
  7 11  2  0
  7 12  1  0
  8 10  2  0
  9 10  1  0
 10 11  1  0
 15 14  1  6
 14 18  2  0
 16 17  2  0
 17 18  1  0
M  END
$$$$
