
     RDKit          3D

 18 19  0  0  0  0  0  0  0  0999 V2000
  169.1402  199.0282 -540.3597 N   0  0  0  0  0  0  0  0  0  0  0  0
  171.5484  198.7151 -540.1633 C   0  0  0  0  0  0  0  0  0  0  0  0
  170.3186  199.0285 -539.5870 C   0  0  0  0  0  0  0  0  0  0  0  0
  168.9322  198.2597 -541.4460 C   0  0  0  0  0  0  0  0  0  0  0  0
  167.4846  197.8678 -541.6730 C   0  0  0  0  0  0  0  0  0  0  0  0
  167.3847  196.6994 -542.6227 C   0  0  0  0  0  0  0  0  0  0  0  0
  166.2483  194.7060 -543.3669 C   0  0  0  0  0  0  0  0  0  0  0  0
  168.4659  196.3714 -543.4389 C   0  0  0  0  0  0  0  0  0  0  0  0
  169.7493  194.8628 -545.2726 Cl  0  0  0  0  0  0  0  0  0  0  0  0
  168.4209  195.2170 -544.2007 C   0  0  0  0  0  0  0  0  0  0  0  0
  167.3374  194.3611 -544.1558 C   0  0  0  0  0  0  0  0  0  0  0  0
  166.2695  195.8716 -542.6180 C   0  0  0  0  0  0  0  0  0  0  0  0
  169.8342  197.8762 -542.1848 O   0  0  0  0  0  0  0  0  0  0  0  0
  170.2520  199.2500 -538.1990 C   0  0  0  0  0  0  0  0  0  0  0  0
  168.9666  199.6192 -537.5062 C   0  0  0  0  0  0  0  0  0  0  0  0
  172.6764  198.5891 -539.4568 N   0  0  0  0  0  0  0  0  0  0  0  0
  172.6022  198.7937 -538.1357 C   0  0  0  0  0  0  0  0  0  0  0  0
  171.4339  199.1184 -537.4766 C   0  0  0  0  0  0  0  0  0  0  0  0
  1  3  1  0
  1  4  1  0
  2  3  2  0
  2 16  1  0
  3 14  1  0
  5  4  1  6
  4 13  2  0
  5  6  1  0
  6  8  1  0
  6 12  2  0
  7 11  2  0
  7 12  1  0
  8 10  2  0
  9 10  1  0
 10 11  1  0
 15 14  1  6
 14 18  2  0
 16 17  2  0
 17 18  1  0
M  END
$$$$
