
     RDKit          3D

 18 19  0  0  0  0  0  0  0  0999 V2000
  -30.2933  -19.6143  -39.4369 N   0  0  0  0  0  0  0  0  0  0  0  0
  -28.2836  -20.9126  -38.9775 C   0  0  0  0  0  0  0  0  0  0  0  0
  -29.6389  -20.8545  -39.2979 C   0  0  0  0  0  0  0  0  0  0  0  0
  -29.8666  -18.6017  -40.2155 C   0  0  0  0  0  0  0  0  0  0  0  0
  -30.9720  -17.7202  -40.7648 C   0  0  0  0  0  0  0  0  0  0  0  0
  -30.5790  -17.1297  -42.0967 C   0  0  0  0  0  0  0  0  0  0  0  0
  -29.7699  -17.4193  -44.3507 C   0  0  0  0  0  0  0  0  0  0  0  0
  -30.3901  -15.7542  -42.2200 C   0  0  0  0  0  0  0  0  0  0  0  0
  -29.7346  -13.5083  -43.5655 Cl  0  0  0  0  0  0  0  0  0  0  0  0
  -29.8923  -15.2366  -43.4029 C   0  0  0  0  0  0  0  0  0  0  0  0
  -29.5509  -16.0525  -44.4640 C   0  0  0  0  0  0  0  0  0  0  0  0
  -30.2911  -17.9484  -43.1811 C   0  0  0  0  0  0  0  0  0  0  0  0
  -28.6854  -18.4127  -40.4904 O   0  0  0  0  0  0  0  0  0  0  0  0
  -30.3256  -22.0501  -39.5789 C   0  0  0  0  0  0  0  0  0  0  0  0
  -31.7955  -22.0731  -39.9066 C   0  0  0  0  0  0  0  0  0  0  0  0
  -27.5879  -22.0541  -38.9454 N   0  0  0  0  0  0  0  0  0  0  0  0
  -28.2475  -23.1858  -39.2218 C   0  0  0  0  0  0  0  0  0  0  0  0
  -29.5900  -23.2304  -39.5388 C   0  0  0  0  0  0  0  0  0  0  0  0
  1  3  1  0
  1  4  1  0
  2  3  2  0
  2 16  1  0
  3 14  1  0
  5  4  1  6
  4 13  2  0
  5  6  1  0
  6  8  1  0
  6 12  2  0
  7 11  2  0
  7 12  1  0
  8 10  2  0
  9 10  1  0
 10 11  1  0
 15 14  1  6
 14 18  2  0
 16 17  2  0
 17 18  1  0
M  END
$$$$
