
     RDKit          3D

 18 19  0  0  0  0  0  0  0  0999 V2000
  -49.6314  131.2625   71.5299 N   0  0  0  0  0  0  0  0  0  0  0  0
  -49.1010  129.8018   69.6536 C   0  0  0  0  0  0  0  0  0  0  0  0
  -48.6899  130.5773   70.7363 C   0  0  0  0  0  0  0  0  0  0  0  0
  -49.3992  132.4252   72.1688 C   0  0  0  0  0  0  0  0  0  0  0  0
  -49.1159  133.6011   71.2537 C   0  0  0  0  0  0  0  0  0  0  0  0
  -48.0757  133.2424   70.2211 C   0  0  0  0  0  0  0  0  0  0  0  0
  -45.7877  133.2938   69.4584 C   0  0  0  0  0  0  0  0  0  0  0  0
  -48.4702  132.7878   68.9639 C   0  0  0  0  0  0  0  0  0  0  0  0
  -48.0214  131.9570   66.4355 Cl  0  0  0  0  0  0  0  0  0  0  0  0
  -47.5192  132.5979   67.9768 C   0  0  0  0  0  0  0  0  0  0  0  0
  -46.1830  132.8717   68.1956 C   0  0  0  0  0  0  0  0  0  0  0  0
  -46.7262  133.4643   70.4633 C   0  0  0  0  0  0  0  0  0  0  0  0
  -49.3859  132.5330   73.3913 O   0  0  0  0  0  0  0  0  0  0  0  0
  -47.3278  130.5895   71.0891 C   0  0  0  0  0  0  0  0  0  0  0  0
  -46.8013  131.4223   72.2283 C   0  0  0  0  0  0  0  0  0  0  0  0
  -48.2645  129.0417   68.9389 N   0  0  0  0  0  0  0  0  0  0  0  0
  -46.9717  129.0532   69.2866 C   0  0  0  0  0  0  0  0  0  0  0  0
  -46.4686  129.7967   70.3350 C   0  0  0  0  0  0  0  0  0  0  0  0
  1  3  1  0
  1  4  1  0
  2  3  2  0
  2 16  1  0
  3 14  1  0
  5  4  1  6
  4 13  2  0
  5  6  1  0
  6  8  1  0
  6 12  2  0
  7 11  2  0
  7 12  1  0
  8 10  2  0
  9 10  1  0
 10 11  1  0
 15 14  1  6
 14 18  2  0
 16 17  2  0
 17 18  1  0
M  END
$$$$
