
     RDKit          3D

 18 19  0  0  0  0  0  0  0  0999 V2000
   -2.9641  100.5698   68.1047 N   0  0  0  0  0  0  0  0  0  0  0  0
   -1.7296  102.2599   69.3518 C   0  0  0  0  0  0  0  0  0  0  0  0
   -2.3394  101.0080   69.2894 C   0  0  0  0  0  0  0  0  0  0  0  0
   -4.2790  100.6885   67.8385 C   0  0  0  0  0  0  0  0  0  0  0  0
   -4.7795  102.1182   67.7605 C   0  0  0  0  0  0  0  0  0  0  0  0
   -6.0160  102.3033   68.6055 C   0  0  0  0  0  0  0  0  0  0  0  0
   -8.2629  103.1431   68.8601 C   0  0  0  0  0  0  0  0  0  0  0  0
   -5.9631  102.0671   69.9782 C   0  0  0  0  0  0  0  0  0  0  0  0
   -7.0012  102.0027   72.4687 Cl  0  0  0  0  0  0  0  0  0  0  0  0
   -7.0576  102.3755   70.7669 C   0  0  0  0  0  0  0  0  0  0  0  0
   -8.2004  102.9383   70.2324 C   0  0  0  0  0  0  0  0  0  0  0  0
   -7.1838  102.8158   68.0553 C   0  0  0  0  0  0  0  0  0  0  0  0
   -5.0289   99.7272   67.6970 O   0  0  0  0  0  0  0  0  0  0  0  0
   -2.2382  100.1435   70.3949 C   0  0  0  0  0  0  0  0  0  0  0  0
   -2.8916   98.7866   70.4150 C   0  0  0  0  0  0  0  0  0  0  0  0
   -1.0259  102.6785   70.4091 N   0  0  0  0  0  0  0  0  0  0  0  0
   -0.9281  101.8464   71.4532 C   0  0  0  0  0  0  0  0  0  0  0  0
   -1.5057  100.5935   71.4890 C   0  0  0  0  0  0  0  0  0  0  0  0
  1  3  1  0
  1  4  1  0
  2  3  2  0
  2 16  1  0
  3 14  1  0
  5  4  1  6
  4 13  2  0
  5  6  1  0
  6  8  1  0
  6 12  2  0
  7 11  2  0
  7 12  1  0
  8 10  2  0
  9 10  1  0
 10 11  1  0
 15 14  1  6
 14 18  2  0
 16 17  2  0
 17 18  1  0
M  END
$$$$
