
     RDKit          3D

 18 19  0  0  0  0  0  0  0  0999 V2000
   46.3211   14.0863  -93.1600 N   0  0  0  0  0  0  0  0  0  0  0  0
   46.5718   12.2969  -91.5257 C   0  0  0  0  0  0  0  0  0  0  0  0
   45.7649   13.0669  -92.3618 C   0  0  0  0  0  0  0  0  0  0  0  0
   45.6461   15.1554  -93.6239 C   0  0  0  0  0  0  0  0  0  0  0  0
   45.0566   16.0447  -92.5458 C   0  0  0  0  0  0  0  0  0  0  0  0
   45.1211   15.3715  -91.1969 C   0  0  0  0  0  0  0  0  0  0  0  0
   45.2344   13.3585  -89.8724 C   0  0  0  0  0  0  0  0  0  0  0  0
   44.8455   16.1003  -90.0410 C   0  0  0  0  0  0  0  0  0  0  0  0
   44.4963   16.3845  -87.3799 Cl  0  0  0  0  0  0  0  0  0  0  0  0
   44.7661   15.4464  -88.8240 C   0  0  0  0  0  0  0  0  0  0  0  0
   44.9284   14.0781  -88.7246 C   0  0  0  0  0  0  0  0  0  0  0  0
   45.3415   14.0041  -91.0935 C   0  0  0  0  0  0  0  0  0  0  0  0
   45.4881   15.3880  -94.8187 O   0  0  0  0  0  0  0  0  0  0  0  0
   44.3989   12.7488  -92.4742 C   0  0  0  0  0  0  0  0  0  0  0  0
   43.4569   13.5489  -93.3353 C   0  0  0  0  0  0  0  0  0  0  0  0
   46.1168   11.2460  -90.8352 N   0  0  0  0  0  0  0  0  0  0  0  0
   44.8176   10.9458  -90.9545 C   0  0  0  0  0  0  0  0  0  0  0  0
   43.9388   11.6549  -91.7479 C   0  0  0  0  0  0  0  0  0  0  0  0
  1  3  1  0
  1  4  1  0
  2  3  2  0
  2 16  1  0
  3 14  1  0
  5  4  1  6
  4 13  2  0
  5  6  1  0
  6  8  1  0
  6 12  2  0
  7 11  2  0
  7 12  1  0
  8 10  2  0
  9 10  1  0
 10 11  1  0
 15 14  1  6
 14 18  2  0
 16 17  2  0
 17 18  1  0
M  END
$$$$
