
     RDKit          3D

 18 19  0  0  0  0  0  0  0  0999 V2000
  249.4117 2338.0559-1991.1794 N   0  0  0  0  0  0  0  0  0  0  0  0
  249.3484 2339.7808-1992.9003 C   0  0  0  0  0  0  0  0  0  0  0  0
  249.2073 2338.4475-1992.5177 C   0  0  0  0  0  0  0  0  0  0  0  0
  248.4722 2338.0908-1990.2152 C   0  0  0  0  0  0  0  0  0  0  0  0
  248.8232 2337.3044-1988.9656 C   0  0  0  0  0  0  0  0  0  0  0  0
  249.5396 2336.0239-1989.3186 C   0  0  0  0  0  0  0  0  0  0  0  0
  250.7077 2334.0288-1988.6287 C   0  0  0  0  0  0  0  0  0  0  0  0
  249.9434 2335.7898-1990.6313 C   0  0  0  0  0  0  0  0  0  0  0  0
  251.1545 2334.3669-1992.5787 Cl  0  0  0  0  0  0  0  0  0  0  0  0
  250.7232 2334.6838-1990.9200 C   0  0  0  0  0  0  0  0  0  0  0  0
  251.1374 2333.8120-1989.9318 C   0  0  0  0  0  0  0  0  0  0  0  0
  249.9059 2335.1184-1988.3297 C   0  0  0  0  0  0  0  0  0  0  0  0
  247.4032 2338.6799-1990.3348 O   0  0  0  0  0  0  0  0  0  0  0  0
  248.7598 2337.5093-1993.4674 C   0  0  0  0  0  0  0  0  0  0  0  0
  248.6074 2336.0474-1993.1395 C   0  0  0  0  0  0  0  0  0  0  0  0
  249.0571 2340.2239-1994.1267 N   0  0  0  0  0  0  0  0  0  0  0  0
  248.6244 2339.3252-1995.0205 C   0  0  0  0  0  0  0  0  0  0  0  0
  248.4634 2337.9841-1994.7396 C   0  0  0  0  0  0  0  0  0  0  0  0
  1  3  1  0
  1  4  1  0
  2  3  2  0
  2 16  1  0
  3 14  1  0
  5  4  1  6
  4 13  2  0
  5  6  1  0
  6  8  1  0
  6 12  2  0
  7 11  2  0
  7 12  1  0
  8 10  2  0
  9 10  1  0
 10 11  1  0
 15 14  1  6
 14 18  2  0
 16 17  2  0
 17 18  1  0
M  END
$$$$
