
     RDKit          3D

 16 17  0  0  0  0  0  0  0  0999 V2000
   37.0653 -158.0210   56.6136 C   0  0  0  0  0  0  0  0  0  0  0  0
   38.4887 -157.8550   56.4580 O   0  0  0  0  0  0  0  0  0  0  0  0
   36.3717 -157.8817   55.2642 C   0  0  0  0  0  0  0  0  0  0  0  0
   35.1339 -157.2304   55.5316 O   0  0  0  0  0  0  0  0  0  0  0  0
   33.9866 -158.0836   55.3706 C   0  0  0  0  0  0  0  0  0  0  0  0
   32.9181 -157.1123   55.5809 N   0  0  0  0  0  0  0  0  0  0  0  0
   32.2191 -156.4699   54.6288 C   0  0  0  0  0  0  0  0  0  0  0  0
   31.2690 -155.6932   55.2255 N   0  0  0  0  0  0  0  0  0  0  0  0
   31.3758 -155.8964   56.5596 C   0  0  0  0  0  0  0  0  0  0  0  0
   30.7054 -155.4137   57.6790 C   0  0  0  0  0  0  0  0  0  0  0  0
   29.7570 -154.5976   57.5765 O   0  0  0  0  0  0  0  0  0  0  0  0
   31.1149 -155.8588   58.8894 N   0  0  0  0  0  0  0  0  0  0  0  0
   32.1077 -156.7373   59.0234 C   0  0  0  0  0  0  0  0  0  0  0  0
   32.5163 -157.1615   60.2314 N   0  0  0  0  0  0  0  0  0  0  0  0
   32.7572 -157.1840   57.9702 N   0  0  0  0  0  0  0  0  0  0  0  0
   32.4235 -156.7865   56.7504 C   0  0  0  0  0  0  0  0  0  0  0  0
  1  2  1  6
  1  3  1  0
  3  4  1  1
  5  4  1  6
  5  6  1  0
  6  7  1  0
  6 16  1  0
  7  8  2  0
  8  9  1  0
  9 10  1  0
  9 16  2  0
 10 11  2  0
 10 12  1  0
 12 13  1  0
 13 14  1  0
 13 15  2  0
 15 16  1  0
M  END
$$$$
