
     RDKit          3D

 16 17  0  0  0  0  0  0  0  0999 V2000
   20.5507    7.3006 -101.4070 C   0  0  0  0  0  0  0  0  0  0  0  0
   21.6169    6.7270 -102.1894 O   0  0  0  0  0  0  0  0  0  0  0  0
   20.8867    8.7409 -101.0412 C   0  0  0  0  0  0  0  0  0  0  0  0
   20.9355    8.7766  -99.6185 O   0  0  0  0  0  0  0  0  0  0  0  0
   19.8221    9.4641  -99.0200 C   0  0  0  0  0  0  0  0  0  0  0  0
   18.8055    8.4208  -99.1057 N   0  0  0  0  0  0  0  0  0  0  0  0
   17.5566    8.5552  -99.5852 C   0  0  0  0  0  0  0  0  0  0  0  0
   16.9369    7.3398  -99.5526 N   0  0  0  0  0  0  0  0  0  0  0  0
   17.8394    6.4509  -99.0755 C   0  0  0  0  0  0  0  0  0  0  0  0
   17.8231    5.0839  -98.8174 C   0  0  0  0  0  0  0  0  0  0  0  0
   16.8026    4.3858  -99.0344 O   0  0  0  0  0  0  0  0  0  0  0  0
   18.9540    4.5309  -98.3214 N   0  0  0  0  0  0  0  0  0  0  0  0
   20.0551    5.2473  -98.0981 C   0  0  0  0  0  0  0  0  0  0  0  0
   21.1683    4.6906  -97.5912 N   0  0  0  0  0  0  0  0  0  0  0  0
   20.0714    6.5433  -98.3234 N   0  0  0  0  0  0  0  0  0  0  0  0
   18.9991    7.1612  -98.7985 C   0  0  0  0  0  0  0  0  0  0  0  0
  1  2  1  6
  1  3  1  0
  3  4  1  1
  5  4  1  6
  5  6  1  0
  6  7  1  0
  6 16  1  0
  7  8  2  0
  8  9  1  0
  9 10  1  0
  9 16  2  0
 10 11  2  0
 10 12  1  0
 12 13  1  0
 13 14  1  0
 13 15  2  0
 15 16  1  0
M  END
$$$$
