
     RDKit          3D

 16 17  0  0  0  0  0  0  0  0999 V2000
  276.7107 -250.1063 -261.9020 C   0  0  0  0  0  0  0  0  0  0  0  0
  277.6155 -248.9842 -261.8783 O   0  0  0  0  0  0  0  0  0  0  0  0
  277.3959 -251.3179 -262.5211 C   0  0  0  0  0  0  0  0  0  0  0  0
  276.3474 -252.2054 -262.8948 O   0  0  0  0  0  0  0  0  0  0  0  0
  275.7610 -251.9006 -264.1729 C   0  0  0  0  0  0  0  0  0  0  0  0
  275.2520 -253.2186 -264.5380 N   0  0  0  0  0  0  0  0  0  0  0  0
  275.4130 -254.3605 -263.8466 C   0  0  0  0  0  0  0  0  0  0  0  0
  274.7381 -255.3615 -264.4827 N   0  0  0  0  0  0  0  0  0  0  0  0
  274.1327 -254.8060 -265.5583 C   0  0  0  0  0  0  0  0  0  0  0  0
  273.3137 -255.2858 -266.5755 C   0  0  0  0  0  0  0  0  0  0  0  0
  272.9723 -256.4926 -266.6309 O   0  0  0  0  0  0  0  0  0  0  0  0
  272.8956 -254.3992 -267.5081 N   0  0  0  0  0  0  0  0  0  0  0  0
  273.2307 -253.1104 -267.4620 C   0  0  0  0  0  0  0  0  0  0  0  0
  272.8221 -252.2411 -268.4020 N   0  0  0  0  0  0  0  0  0  0  0  0
  274.0191 -252.6540 -266.5130 N   0  0  0  0  0  0  0  0  0  0  0  0
  274.4800 -253.4624 -265.5689 C   0  0  0  0  0  0  0  0  0  0  0  0
  1  2  1  6
  1  3  1  0
  3  4  1  1
  5  4  1  6
  5  6  1  0
  6  7  1  0
  6 16  1  0
  7  8  2  0
  8  9  1  0
  9 10  1  0
  9 16  2  0
 10 11  2  0
 10 12  1  0
 12 13  1  0
 13 14  1  0
 13 15  2  0
 15 16  1  0
M  END
$$$$
