
     RDKit          3D

 16 17  0  0  0  0  0  0  0  0999 V2000
 -110.8995 -166.4207 -593.0260 C   0  0  0  0  0  0  0  0  0  0  0  0
 -111.7146 -165.3134 -592.5928 O   0  0  0  0  0  0  0  0  0  0  0  0
 -111.4965 -167.0518 -594.2778 C   0  0  0  0  0  0  0  0  0  0  0  0
 -112.8246 -166.5461 -594.3691 O   0  0  0  0  0  0  0  0  0  0  0  0
 -112.9627 -165.1973 -593.8875 C   0  0  0  0  0  0  0  0  0  0  0  0
 -114.4030 -165.0204 -594.0411 N   0  0  0  0  0  0  0  0  0  0  0  0
 -115.2251 -165.7614 -594.8047 C   0  0  0  0  0  0  0  0  0  0  0  0
 -116.5052 -165.3207 -594.6331 N   0  0  0  0  0  0  0  0  0  0  0  0
 -116.4576 -164.3179 -593.7247 C   0  0  0  0  0  0  0  0  0  0  0  0
 -117.4046 -163.4862 -593.1361 C   0  0  0  0  0  0  0  0  0  0  0  0
 -118.6251 -163.5785 -593.4148 O   0  0  0  0  0  0  0  0  0  0  0  0
 -116.9597 -162.5688 -592.2466 N   0  0  0  0  0  0  0  0  0  0  0  0
 -115.6720 -162.4621 -591.9216 C   0  0  0  0  0  0  0  0  0  0  0  0
 -115.2389 -161.5373 -591.0478 N   0  0  0  0  0  0  0  0  0  0  0  0
 -114.7693 -163.2337 -592.4877 N   0  0  0  0  0  0  0  0  0  0  0  0
 -115.1241 -164.1494 -593.3783 C   0  0  0  0  0  0  0  0  0  0  0  0
  1  2  1  6
  1  3  1  0
  3  4  1  1
  5  4  1  6
  5  6  1  0
  6  7  1  0
  6 16  1  0
  7  8  2  0
  8  9  1  0
  9 10  1  0
  9 16  2  0
 10 11  2  0
 10 12  1  0
 12 13  1  0
 13 14  1  0
 13 15  2  0
 15 16  1  0
M  END
$$$$
