
     RDKit          3D

 16 17  0  0  0  0  0  0  0  0999 V2000
  176.2046   93.0042  101.7642 C   0  0  0  0  0  0  0  0  0  0  0  0
  175.5330   94.2777  101.6918 O   0  0  0  0  0  0  0  0  0  0  0  0
  175.4011   91.9460  101.0185 C   0  0  0  0  0  0  0  0  0  0  0  0
  175.4105   90.7937  101.8549 O   0  0  0  0  0  0  0  0  0  0  0  0
  174.3452   89.8681  101.5740 C   0  0  0  0  0  0  0  0  0  0  0  0
  174.3233   89.1203  102.8268 N   0  0  0  0  0  0  0  0  0  0  0  0
  175.2669   88.2717  103.2709 C   0  0  0  0  0  0  0  0  0  0  0  0
  174.9097   87.8213  104.5085 N   0  0  0  0  0  0  0  0  0  0  0  0
  173.7466   88.4347  104.8298 C   0  0  0  0  0  0  0  0  0  0  0  0
  172.8970   88.4046  105.9310 C   0  0  0  0  0  0  0  0  0  0  0  0
  173.1444   87.6906  106.9334 O   0  0  0  0  0  0  0  0  0  0  0  0
  171.7877   89.1779  105.8822 N   0  0  0  0  0  0  0  0  0  0  0  0
  171.5113   89.9568  104.8370 C   0  0  0  0  0  0  0  0  0  0  0  0
  170.3990   90.7096  104.7926 N   0  0  0  0  0  0  0  0  0  0  0  0
  172.3015   89.9764  103.7854 N   0  0  0  0  0  0  0  0  0  0  0  0
  173.4018   89.2379  103.7517 C   0  0  0  0  0  0  0  0  0  0  0  0
  1  2  1  6
  1  3  1  0
  3  4  1  1
  5  4  1  6
  5  6  1  0
  6  7  1  0
  6 16  1  0
  7  8  2  0
  8  9  1  0
  9 10  1  0
  9 16  2  0
 10 11  2  0
 10 12  1  0
 12 13  1  0
 13 14  1  0
 13 15  2  0
 15 16  1  0
M  END
$$$$
