
     RDKit          3D

 16 17  0  0  0  0  0  0  0  0999 V2000
  366.5406 -445.5774 -108.4770 C   0  0  0  0  0  0  0  0  0  0  0  0
  365.5114 -444.7684 -107.8735 O   0  0  0  0  0  0  0  0  0  0  0  0
  367.5816 -444.6873 -109.1447 C   0  0  0  0  0  0  0  0  0  0  0  0
  367.5113 -443.4366 -108.4678 O   0  0  0  0  0  0  0  0  0  0  0  0
  366.5442 -442.5308 -109.0283 C   0  0  0  0  0  0  0  0  0  0  0  0
  365.5374 -443.4848 -109.4818 N   0  0  0  0  0  0  0  0  0  0  0  0
  365.2347 -444.6636 -108.9106 C   0  0  0  0  0  0  0  0  0  0  0  0
  364.1997 -445.2334 -109.5935 N   0  0  0  0  0  0  0  0  0  0  0  0
  363.8510 -444.3672 -110.5735 C   0  0  0  0  0  0  0  0  0  0  0  0
  362.8886 -444.3632 -111.5779 C   0  0  0  0  0  0  0  0  0  0  0  0
  362.0860 -445.3174 -111.7238 O   0  0  0  0  0  0  0  0  0  0  0  0
  362.8484 -443.2866 -112.3967 N   0  0  0  0  0  0  0  0  0  0  0  0
  363.6780 -442.2542 -112.2523 C   0  0  0  0  0  0  0  0  0  0  0  0
  363.6391 -441.1963 -113.0803 N   0  0  0  0  0  0  0  0  0  0  0  0
  364.6019 -442.2597 -111.3157 N   0  0  0  0  0  0  0  0  0  0  0  0
  364.7132 -443.2835 -110.4809 C   0  0  0  0  0  0  0  0  0  0  0  0
  1  2  1  6
  1  3  1  0
  3  4  1  1
  5  4  1  6
  5  6  1  0
  6  7  1  0
  6 16  1  0
  7  8  2  0
  8  9  1  0
  9 10  1  0
  9 16  2  0
 10 11  2  0
 10 12  1  0
 12 13  1  0
 13 14  1  0
 13 15  2  0
 15 16  1  0
M  END
$$$$
