
     RDKit          3D

 16 17  0  0  0  0  0  0  0  0999 V2000
  -69.4931  163.1658  380.0805 C   0  0  0  0  0  0  0  0  0  0  0  0
  -68.5987  162.1888  380.6489 O   0  0  0  0  0  0  0  0  0  0  0  0
  -70.5556  162.4737  379.2358 C   0  0  0  0  0  0  0  0  0  0  0  0
  -70.0428  162.4578  377.9075 O   0  0  0  0  0  0  0  0  0  0  0  0
  -69.5657  161.1665  377.4887 C   0  0  0  0  0  0  0  0  0  0  0  0
  -70.4112  160.9521  376.3189 N   0  0  0  0  0  0  0  0  0  0  0  0
  -70.8774  161.8958  375.4822 C   0  0  0  0  0  0  0  0  0  0  0  0
  -71.5785  161.2911  374.4797 N   0  0  0  0  0  0  0  0  0  0  0  0
  -71.5058  159.9572  374.6982 C   0  0  0  0  0  0  0  0  0  0  0  0
  -71.9961  158.8313  374.0444 C   0  0  0  0  0  0  0  0  0  0  0  0
  -72.6762  158.9249  372.9935 O   0  0  0  0  0  0  0  0  0  0  0  0
  -71.7113  157.6243  374.5857 N   0  0  0  0  0  0  0  0  0  0  0  0
  -70.9779  157.4977  375.6910 C   0  0  0  0  0  0  0  0  0  0  0  0
  -70.7135  156.2947  376.2284 N   0  0  0  0  0  0  0  0  0  0  0  0
  -70.5263  158.5591  376.3235 N   0  0  0  0  0  0  0  0  0  0  0  0
  -70.7726  159.7775  375.8628 C   0  0  0  0  0  0  0  0  0  0  0  0
  1  2  1  6
  1  3  1  0
  3  4  1  1
  5  4  1  6
  5  6  1  0
  6  7  1  0
  6 16  1  0
  7  8  2  0
  8  9  1  0
  9 10  1  0
  9 16  2  0
 10 11  2  0
 10 12  1  0
 12 13  1  0
 13 14  1  0
 13 15  2  0
 15 16  1  0
M  END
$$$$
