
     RDKit          3D

 16 17  0  0  0  0  0  0  0  0999 V2000
  502.3816  250.5963 -142.8074 C   0  0  0  0  0  0  0  0  0  0  0  0
  503.7652  250.9587 -142.9852 O   0  0  0  0  0  0  0  0  0  0  0  0
  501.9620  249.5936 -143.8751 C   0  0  0  0  0  0  0  0  0  0  0  0
  501.3905  250.3656 -144.9264 O   0  0  0  0  0  0  0  0  0  0  0  0
  500.2210  249.7664 -145.5123 C   0  0  0  0  0  0  0  0  0  0  0  0
  499.4872  250.9678 -145.8964 N   0  0  0  0  0  0  0  0  0  0  0  0
  499.1121  251.3156 -147.1399 C   0  0  0  0  0  0  0  0  0  0  0  0
  498.3941  252.4743 -147.0778 N   0  0  0  0  0  0  0  0  0  0  0  0
  498.3068  252.8133 -145.7701 C   0  0  0  0  0  0  0  0  0  0  0  0
  497.7139  253.8581 -145.0683 C   0  0  0  0  0  0  0  0  0  0  0  0
  497.0761  254.7659 -145.6550 O   0  0  0  0  0  0  0  0  0  0  0  0
  497.8508  253.8598 -143.7221 N   0  0  0  0  0  0  0  0  0  0  0  0
  498.5091  252.8990 -143.0747 C   0  0  0  0  0  0  0  0  0  0  0  0
  498.6516  252.9186 -141.7386 N   0  0  0  0  0  0  0  0  0  0  0  0
  499.0868  251.9180 -143.7339 N   0  0  0  0  0  0  0  0  0  0  0  0
  499.0081  251.8520 -145.0555 C   0  0  0  0  0  0  0  0  0  0  0  0
  1  2  1  6
  1  3  1  0
  3  4  1  1
  5  4  1  6
  5  6  1  0
  6  7  1  0
  6 16  1  0
  7  8  2  0
  8  9  1  0
  9 10  1  0
  9 16  2  0
 10 11  2  0
 10 12  1  0
 12 13  1  0
 13 14  1  0
 13 15  2  0
 15 16  1  0
M  END
$$$$
