
     RDKit          3D

 16 17  0  0  0  0  0  0  0  0999 V2000
  -37.6864   74.6088 -250.7396 C   0  0  0  0  0  0  0  0  0  0  0  0
  -38.1026   75.7015 -249.8967 O   0  0  0  0  0  0  0  0  0  0  0  0
  -38.8746   73.7085 -251.0542 C   0  0  0  0  0  0  0  0  0  0  0  0
  -38.6723   73.2541 -252.3883 O   0  0  0  0  0  0  0  0  0  0  0  0
  -39.7511   73.5859 -253.2807 C   0  0  0  0  0  0  0  0  0  0  0  0
  -40.1845   74.8497 -252.6941 N   0  0  0  0  0  0  0  0  0  0  0  0
  -39.8271   75.3419 -251.4952 C   0  0  0  0  0  0  0  0  0  0  0  0
  -40.3929   76.5734 -251.3359 N   0  0  0  0  0  0  0  0  0  0  0  0
  -41.0767   76.8422 -252.4727 C   0  0  0  0  0  0  0  0  0  0  0  0
  -41.8430   77.9123 -252.9229 C   0  0  0  0  0  0  0  0  0  0  0  0
  -42.0233   78.9350 -252.2177 O   0  0  0  0  0  0  0  0  0  0  0  0
  -42.3899   77.8105 -254.1565 N   0  0  0  0  0  0  0  0  0  0  0  0
  -42.1999   76.7429 -254.9308 C   0  0  0  0  0  0  0  0  0  0  0  0
  -42.7600   76.6457 -256.1484 N   0  0  0  0  0  0  0  0  0  0  0  0
  -41.4910   75.7202 -254.5040 N   0  0  0  0  0  0  0  0  0  0  0  0
  -40.9319   75.7387 -253.3021 C   0  0  0  0  0  0  0  0  0  0  0  0
  1  2  1  6
  1  3  1  0
  3  4  1  1
  5  4  1  6
  5  6  1  0
  6  7  1  0
  6 16  1  0
  7  8  2  0
  8  9  1  0
  9 10  1  0
  9 16  2  0
 10 11  2  0
 10 12  1  0
 12 13  1  0
 13 14  1  0
 13 15  2  0
 15 16  1  0
M  END
$$$$
