
     RDKit          3D

 16 17  0  0  0  0  0  0  0  0999 V2000
  -75.3057  442.8922   91.4163 C   0  0  0  0  0  0  0  0  0  0  0  0
  -75.8924  442.1405   92.4973 O   0  0  0  0  0  0  0  0  0  0  0  0
  -75.7820  442.3422   90.0776 C   0  0  0  0  0  0  0  0  0  0  0  0
  -76.8293  443.2093   89.6546 O   0  0  0  0  0  0  0  0  0  0  0  0
  -76.3802  444.2924   88.8205 C   0  0  0  0  0  0  0  0  0  0  0  0
  -76.1879  443.5792   87.5621 N   0  0  0  0  0  0  0  0  0  0  0  0
  -75.0144  443.2020   87.0252 C   0  0  0  0  0  0  0  0  0  0  0  0
  -75.2567  442.5071   85.8761 N   0  0  0  0  0  0  0  0  0  0  0  0
  -76.6010  442.4359   85.7354 C   0  0  0  0  0  0  0  0  0  0  0  0
  -77.4574  441.8690   84.7969 C   0  0  0  0  0  0  0  0  0  0  0  0
  -77.0196  441.2440   83.7999 O   0  0  0  0  0  0  0  0  0  0  0  0
  -78.7871  442.0157   84.9994 N   0  0  0  0  0  0  0  0  0  0  0  0
  -79.2766  442.6599   86.0581 C   0  0  0  0  0  0  0  0  0  0  0  0
  -80.5993  442.8124   86.2417 N   0  0  0  0  0  0  0  0  0  0  0  0
  -78.4723  443.2133   86.9396 N   0  0  0  0  0  0  0  0  0  0  0  0
  -77.1565  443.1234   86.8054 C   0  0  0  0  0  0  0  0  0  0  0  0
  1  2  1  6
  1  3  1  0
  3  4  1  1
  5  4  1  6
  5  6  1  0
  6  7  1  0
  6 16  1  0
  7  8  2  0
  8  9  1  0
  9 10  1  0
  9 16  2  0
 10 11  2  0
 10 12  1  0
 12 13  1  0
 13 14  1  0
 13 15  2  0
 15 16  1  0
M  END
$$$$
