
     RDKit          3D

 16 17  0  0  0  0  0  0  0  0999 V2000
  -45.6428 -330.4720  183.1850 C   0  0  0  0  0  0  0  0  0  0  0  0
  -44.4186 -329.7984  182.8305 O   0  0  0  0  0  0  0  0  0  0  0  0
  -45.3345 -331.7303  183.9863 C   0  0  0  0  0  0  0  0  0  0  0  0
  -43.9929 -331.5805  184.4395 O   0  0  0  0  0  0  0  0  0  0  0  0
  -43.4148 -330.3027  184.1185 C   0  0  0  0  0  0  0  0  0  0  0  0
  -41.9985 -330.6522  184.1457 N   0  0  0  0  0  0  0  0  0  0  0  0
  -41.4732 -331.8830  184.0143 C   0  0  0  0  0  0  0  0  0  0  0  0
  -40.1121 -331.7876  184.0329 N   0  0  0  0  0  0  0  0  0  0  0  0
  -39.8116 -330.4723  184.1445 C   0  0  0  0  0  0  0  0  0  0  0  0
  -38.6295 -329.7415  184.2087 C   0  0  0  0  0  0  0  0  0  0  0  0
  -37.5068 -330.3010  184.1582 O   0  0  0  0  0  0  0  0  0  0  0  0
  -38.7346 -328.3978  184.3278 N   0  0  0  0  0  0  0  0  0  0  0  0
  -39.9141 -327.7792  184.3667 C   0  0  0  0  0  0  0  0  0  0  0  0
  -40.0070 -326.4453  184.5002 N   0  0  0  0  0  0  0  0  0  0  0  0
  -41.0353 -328.4659  184.3242 N   0  0  0  0  0  0  0  0  0  0  0  0
  -41.0162 -329.7873  184.2196 C   0  0  0  0  0  0  0  0  0  0  0  0
  1  2  1  6
  1  3  1  0
  3  4  1  1
  5  4  1  6
  5  6  1  0
  6  7  1  0
  6 16  1  0
  7  8  2  0
  8  9  1  0
  9 10  1  0
  9 16  2  0
 10 11  2  0
 10 12  1  0
 12 13  1  0
 13 14  1  0
 13 15  2  0
 15 16  1  0
M  END
$$$$
