
     RDKit          3D

 16 17  0  0  0  0  0  0  0  0999 V2000
  175.4306  163.2462   -9.8913 C   0  0  0  0  0  0  0  0  0  0  0  0
  175.0052  162.0420  -10.5600 O   0  0  0  0  0  0  0  0  0  0  0  0
  174.8885  164.4691  -10.6208 C   0  0  0  0  0  0  0  0  0  0  0  0
  173.7437  164.8832   -9.8823 O   0  0  0  0  0  0  0  0  0  0  0  0
  172.5011  164.6660  -10.5744 C   0  0  0  0  0  0  0  0  0  0  0  0
  173.0054  164.1548  -11.8447 N   0  0  0  0  0  0  0  0  0  0  0  0
  172.9174  162.8899  -12.2922 C   0  0  0  0  0  0  0  0  0  0  0  0
  173.4519  162.8260  -13.5461 N   0  0  0  0  0  0  0  0  0  0  0  0
  173.8390  164.0812  -13.8731 C   0  0  0  0  0  0  0  0  0  0  0  0
  174.4326  164.6618  -14.9894 C   0  0  0  0  0  0  0  0  0  0  0  0
  174.7290  163.9843  -16.0038 O   0  0  0  0  0  0  0  0  0  0  0  0
  174.6800  165.9912  -14.9418 N   0  0  0  0  0  0  0  0  0  0  0  0
  174.3598  166.7348  -13.8835 C   0  0  0  0  0  0  0  0  0  0  0  0
  174.6235  168.0520  -13.8409 N   0  0  0  0  0  0  0  0  0  0  0  0
  173.8146  166.1889  -12.8181 N   0  0  0  0  0  0  0  0  0  0  0  0
  173.5514  164.8901  -12.7825 C   0  0  0  0  0  0  0  0  0  0  0  0
  1  2  1  6
  1  3  1  0
  3  4  1  1
  5  4  1  6
  5  6  1  0
  6  7  1  0
  6 16  1  0
  7  8  2  0
  8  9  1  0
  9 10  1  0
  9 16  2  0
 10 11  2  0
 10 12  1  0
 12 13  1  0
 13 14  1  0
 13 15  2  0
 15 16  1  0
M  END
$$$$
