
     RDKit          3D

 16 17  0  0  0  0  0  0  0  0999 V2000
  -75.3581  200.5903  398.1873 C   0  0  0  0  0  0  0  0  0  0  0  0
  -74.6804  201.1135  399.3469 O   0  0  0  0  0  0  0  0  0  0  0  0
  -74.4942  200.7787  396.9467 C   0  0  0  0  0  0  0  0  0  0  0  0
  -73.7369  199.5798  396.8178 O   0  0  0  0  0  0  0  0  0  0  0  0
  -72.3459  199.7373  397.1511 C   0  0  0  0  0  0  0  0  0  0  0  0
  -72.4528  200.7232  398.2215 N   0  0  0  0  0  0  0  0  0  0  0  0
  -71.4681  201.5119  398.6868 C   0  0  0  0  0  0  0  0  0  0  0  0
  -71.9789  202.3385  399.6448 N   0  0  0  0  0  0  0  0  0  0  0  0
  -73.3016  202.0657  399.7353 C   0  0  0  0  0  0  0  0  0  0  0  0
  -74.3516  202.5597  400.5027 C   0  0  0  0  0  0  0  0  0  0  0  0
  -74.1775  203.4753  401.3438 O   0  0  0  0  0  0  0  0  0  0  0  0
  -75.5747  202.0147  400.3081 N   0  0  0  0  0  0  0  0  0  0  0  0
  -75.7883  201.0539  399.4099 C   0  0  0  0  0  0  0  0  0  0  0  0
  -77.0045  200.5090  399.2353 N   0  0  0  0  0  0  0  0  0  0  0  0
  -74.7965  200.5702  398.6938 N   0  0  0  0  0  0  0  0  0  0  0  0
  -73.5663  201.0437  398.8344 C   0  0  0  0  0  0  0  0  0  0  0  0
  1  2  1  6
  1  3  1  0
  3  4  1  1
  5  4  1  6
  5  6  1  0
  6  7  1  0
  6 16  1  0
  7  8  2  0
  8  9  1  0
  9 10  1  0
  9 16  2  0
 10 11  2  0
 10 12  1  0
 12 13  1  0
 13 14  1  0
 13 15  2  0
 15 16  1  0
M  END
$$$$
