
     RDKit          3D

 16 17  0  0  0  0  0  0  0  0999 V2000
 -354.7632  -66.9636 -174.3078 C   0  0  0  0  0  0  0  0  0  0  0  0
 -355.1452  -67.3925 -172.9858 O   0  0  0  0  0  0  0  0  0  0  0  0
 -353.2484  -66.8217 -174.3943 C   0  0  0  0  0  0  0  0  0  0  0  0
 -353.0136  -65.6859 -175.2205 O   0  0  0  0  0  0  0  0  0  0  0  0
 -352.0030  -65.9000 -176.2220 C   0  0  0  0  0  0  0  0  0  0  0  0
 -352.5080  -65.0314 -177.2803 N   0  0  0  0  0  0  0  0  0  0  0  0
 -352.8199  -63.7284 -177.1679 C   0  0  0  0  0  0  0  0  0  0  0  0
 -353.1975  -63.2569 -178.3916 N   0  0  0  0  0  0  0  0  0  0  0  0
 -353.0800  -64.2860 -179.2631 C   0  0  0  0  0  0  0  0  0  0  0  0
 -353.3019  -64.4420 -180.6275 C   0  0  0  0  0  0  0  0  0  0  0  0
 -353.7009  -63.4899 -181.3420 O   0  0  0  0  0  0  0  0  0  0  0  0
 -353.0706  -65.6642 -181.1598 N   0  0  0  0  0  0  0  0  0  0  0  0
 -352.6313  -66.6859 -180.4259 C   0  0  0  0  0  0  0  0  0  0  0  0
 -352.4186  -67.8998 -180.9619 N   0  0  0  0  0  0  0  0  0  0  0  0
 -352.4362  -66.5496 -179.1320 N   0  0  0  0  0  0  0  0  0  0  0  0
 -352.6516  -65.3865 -178.5338 C   0  0  0  0  0  0  0  0  0  0  0  0
  1  2  1  6
  1  3  1  0
  3  4  1  1
  5  4  1  6
  5  6  1  0
  6  7  1  0
  6 16  1  0
  7  8  2  0
  8  9  1  0
  9 10  1  0
  9 16  2  0
 10 11  2  0
 10 12  1  0
 12 13  1  0
 13 14  1  0
 13 15  2  0
 15 16  1  0
M  END
$$$$
