
     RDKit          3D

 16 17  0  0  0  0  0  0  0  0999 V2000
   99.7925  248.5294   60.1217 C   0  0  0  0  0  0  0  0  0  0  0  0
  100.6238  248.7042   58.9570 O   0  0  0  0  0  0  0  0  0  0  0  0
   99.9289  247.1081   60.6533 C   0  0  0  0  0  0  0  0  0  0  0  0
  101.3202  246.9153   60.8870 O   0  0  0  0  0  0  0  0  0  0  0  0
  102.1551  247.3679   59.8060 C   0  0  0  0  0  0  0  0  0  0  0  0
  102.2904  248.7760   60.1639 N   0  0  0  0  0  0  0  0  0  0  0  0
  102.1805  249.3048   61.3953 C   0  0  0  0  0  0  0  0  0  0  0  0
  102.4329  250.6440   61.3258 N   0  0  0  0  0  0  0  0  0  0  0  0
  102.7324  250.9214   60.0352 C   0  0  0  0  0  0  0  0  0  0  0  0
  103.0791  252.0742   59.3379 C   0  0  0  0  0  0  0  0  0  0  0  0
  103.1791  253.1857   59.9129 O   0  0  0  0  0  0  0  0  0  0  0  0
  103.3062  251.9532   58.0095 N   0  0  0  0  0  0  0  0  0  0  0  0
  103.2226  250.7822   57.3793 C   0  0  0  0  0  0  0  0  0  0  0  0
  103.4357  250.6758   56.0567 N   0  0  0  0  0  0  0  0  0  0  0  0
  102.8781  249.6917   58.0295 N   0  0  0  0  0  0  0  0  0  0  0  0
  102.6278  249.7301   59.3308 C   0  0  0  0  0  0  0  0  0  0  0  0
  1  2  1  6
  1  3  1  0
  3  4  1  1
  5  4  1  6
  5  6  1  0
  6  7  1  0
  6 16  1  0
  7  8  2  0
  8  9  1  0
  9 10  1  0
  9 16  2  0
 10 11  2  0
 10 12  1  0
 12 13  1  0
 13 14  1  0
 13 15  2  0
 15 16  1  0
M  END
$$$$
