
     RDKit          3D

 16 17  0  0  0  0  0  0  0  0999 V2000
  569.7059 -654.3726 -496.5980 C   0  0  0  0  0  0  0  0  0  0  0  0
  569.6116 -654.6298 -495.1825 O   0  0  0  0  0  0  0  0  0  0  0  0
  569.3640 -652.9165 -496.8887 C   0  0  0  0  0  0  0  0  0  0  0  0
  570.0195 -652.6031 -498.1133 O   0  0  0  0  0  0  0  0  0  0  0  0
  571.4525 -652.7180 -498.0467 C   0  0  0  0  0  0  0  0  0  0  0  0
  571.7214 -653.2882 -499.3628 N   0  0  0  0  0  0  0  0  0  0  0  0
  570.8096 -653.6583 -500.2782 C   0  0  0  0  0  0  0  0  0  0  0  0
  571.4575 -654.0869 -501.4004 N   0  0  0  0  0  0  0  0  0  0  0  0
  572.7833 -653.9420 -501.1685 C   0  0  0  0  0  0  0  0  0  0  0  0
  573.9371 -654.1891 -501.9050 C   0  0  0  0  0  0  0  0  0  0  0  0
  573.8869 -654.6491 -503.0718 O   0  0  0  0  0  0  0  0  0  0  0  0
  575.1230 -653.9128 -501.3146 N   0  0  0  0  0  0  0  0  0  0  0  0
  575.2022 -653.4085 -500.0838 C   0  0  0  0  0  0  0  0  0  0  0  0
  576.3857 -653.1523 -499.5010 N   0  0  0  0  0  0  0  0  0  0  0  0
  574.1156 -653.1893 -499.3754 N   0  0  0  0  0  0  0  0  0  0  0  0
  572.9159 -653.4451 -499.8795 C   0  0  0  0  0  0  0  0  0  0  0  0
  1  2  1  6
  1  3  1  0
  3  4  1  1
  5  4  1  6
  5  6  1  0
  6  7  1  0
  6 16  1  0
  7  8  2  0
  8  9  1  0
  9 10  1  0
  9 16  2  0
 10 11  2  0
 10 12  1  0
 12 13  1  0
 13 14  1  0
 13 15  2  0
 15 16  1  0
M  END
$$$$
