
     RDKit          3D

 16 17  0  0  0  0  0  0  0  0999 V2000
  -60.3977   34.7402  -47.6196 C   0  0  0  0  0  0  0  0  0  0  0  0
  -60.9135   35.4532  -46.4779 O   0  0  0  0  0  0  0  0  0  0  0  0
  -60.7126   33.2547  -47.4948 C   0  0  0  0  0  0  0  0  0  0  0  0
  -62.1180   33.1400  -47.6931 O   0  0  0  0  0  0  0  0  0  0  0  0
  -62.5716   31.7820  -47.8355 C   0  0  0  0  0  0  0  0  0  0  0  0
  -62.0681   31.2154  -46.5886 N   0  0  0  0  0  0  0  0  0  0  0  0
  -61.2006   31.7919  -45.7383 C   0  0  0  0  0  0  0  0  0  0  0  0
  -61.0268   30.9727  -44.6608 N   0  0  0  0  0  0  0  0  0  0  0  0
  -61.8288   29.8987  -44.8498 C   0  0  0  0  0  0  0  0  0  0  0  0
  -62.1025   28.7432  -44.1250 C   0  0  0  0  0  0  0  0  0  0  0  0
  -61.5534   28.5148  -43.0194 O   0  0  0  0  0  0  0  0  0  0  0  0
  -62.9876   27.8695  -44.6579 N   0  0  0  0  0  0  0  0  0  0  0  0
  -63.5959   28.0970  -45.8214 C   0  0  0  0  0  0  0  0  0  0  0  0
  -64.4623   27.2153  -46.3488 N   0  0  0  0  0  0  0  0  0  0  0  0
  -63.3283   29.1791  -46.5200 N   0  0  0  0  0  0  0  0  0  0  0  0
  -62.4635   30.0778  -46.0710 C   0  0  0  0  0  0  0  0  0  0  0  0
  1  2  1  6
  1  3  1  0
  3  4  1  1
  5  4  1  6
  5  6  1  0
  6  7  1  0
  6 16  1  0
  7  8  2  0
  8  9  1  0
  9 10  1  0
  9 16  2  0
 10 11  2  0
 10 12  1  0
 12 13  1  0
 13 14  1  0
 13 15  2  0
 15 16  1  0
M  END
$$$$
