
     RDKit          3D

 16 17  0  0  0  0  0  0  0  0999 V2000
   16.1773 -169.6017   55.4241 C   0  0  0  0  0  0  0  0  0  0  0  0
   16.1587 -168.3706   54.6745 O   0  0  0  0  0  0  0  0  0  0  0  0
   17.2353 -169.5320   56.5182 C   0  0  0  0  0  0  0  0  0  0  0  0
   16.6985 -170.2556   57.6209 O   0  0  0  0  0  0  0  0  0  0  0  0
   17.3132 -169.9282   58.8800 C   0  0  0  0  0  0  0  0  0  0  0  0
   17.8088 -168.5892   58.5786 N   0  0  0  0  0  0  0  0  0  0  0  0
   17.1681 -167.4281   58.7998 C   0  0  0  0  0  0  0  0  0  0  0  0
   17.9853 -166.3962   58.4398 N   0  0  0  0  0  0  0  0  0  0  0  0
   19.1515 -166.9443   58.0251 C   0  0  0  0  0  0  0  0  0  0  0  0
   20.3563 -166.4362   57.5501 C   0  0  0  0  0  0  0  0  0  0  0  0
   20.5479 -165.2013   57.4307 O   0  0  0  0  0  0  0  0  0  0  0  0
   21.3200 -167.3267   57.2199 N   0  0  0  0  0  0  0  0  0  0  0  0
   21.1470 -168.6412   57.3531 C   0  0  0  0  0  0  0  0  0  0  0  0
   22.1056 -169.5176   57.0081 N   0  0  0  0  0  0  0  0  0  0  0  0
   20.0040 -169.1286   57.7850 N   0  0  0  0  0  0  0  0  0  0  0  0
   19.0065 -168.3215   58.1179 C   0  0  0  0  0  0  0  0  0  0  0  0
  1  2  1  6
  1  3  1  0
  3  4  1  1
  5  4  1  6
  5  6  1  0
  6  7  1  0
  6 16  1  0
  7  8  2  0
  8  9  1  0
  9 10  1  0
  9 16  2  0
 10 11  2  0
 10 12  1  0
 12 13  1  0
 13 14  1  0
 13 15  2  0
 15 16  1  0
M  END
$$$$
