
     RDKit          3D

 16 17  0  0  0  0  0  0  0  0999 V2000
  358.9942  441.2374   81.3998 C   0  0  0  0  0  0  0  0  0  0  0  0
  359.0362  440.1108   80.5013 O   0  0  0  0  0  0  0  0  0  0  0  0
  360.3874  441.5224   81.9466 C   0  0  0  0  0  0  0  0  0  0  0  0
  361.2674  441.4248   80.8314 O   0  0  0  0  0  0  0  0  0  0  0  0
  360.7523  440.6153   79.7593 C   0  0  0  0  0  0  0  0  0  0  0  0
  359.3441  440.5605   80.1380 N   0  0  0  0  0  0  0  0  0  0  0  0
  358.4702  441.5824   80.1269 C   0  0  0  0  0  0  0  0  0  0  0  0
  357.2400  441.1162   80.4890 N   0  0  0  0  0  0  0  0  0  0  0  0
  357.3678  439.7837   80.6900 C   0  0  0  0  0  0  0  0  0  0  0  0
  356.4981  438.7627   81.0597 C   0  0  0  0  0  0  0  0  0  0  0  0
  355.2833  438.9836   81.2862 O   0  0  0  0  0  0  0  0  0  0  0  0
  357.0120  437.5155   81.1663 N   0  0  0  0  0  0  0  0  0  0  0  0
  358.2939  437.2527   80.9150 C   0  0  0  0  0  0  0  0  0  0  0  0
  358.7974  436.0126   81.0383 N   0  0  0  0  0  0  0  0  0  0  0  0
  359.1252  438.2166   80.5823 N   0  0  0  0  0  0  0  0  0  0  0  0
  358.7009  439.4673   80.4683 C   0  0  0  0  0  0  0  0  0  0  0  0
  1  2  1  6
  1  3  1  0
  3  4  1  1
  5  4  1  6
  5  6  1  0
  6  7  1  0
  6 16  1  0
  7  8  2  0
  8  9  1  0
  9 10  1  0
  9 16  2  0
 10 11  2  0
 10 12  1  0
 12 13  1  0
 13 14  1  0
 13 15  2  0
 15 16  1  0
M  END
$$$$
