
     RDKit          3D

 16 17  0  0  0  0  0  0  0  0999 V2000
 -109.4324  -69.4388    1.1396 C   0  0  0  0  0  0  0  0  0  0  0  0
 -110.2212  -70.6088    0.8455 O   0  0  0  0  0  0  0  0  0  0  0  0
 -109.9282  -68.7821    2.4219 C   0  0  0  0  0  0  0  0  0  0  0  0
 -109.6497  -67.3932    2.2772 O   0  0  0  0  0  0  0  0  0  0  0  0
 -108.6005  -67.1104    1.3342 C   0  0  0  0  0  0  0  0  0  0  0  0
 -109.2820  -66.1428    0.4807 N   0  0  0  0  0  0  0  0  0  0  0  0
 -108.8126  -64.9438    0.0937 C   0  0  0  0  0  0  0  0  0  0  0  0
 -109.7174  -64.3650   -0.7478 N   0  0  0  0  0  0  0  0  0  0  0  0
 -110.7353  -65.2449   -0.8966 C   0  0  0  0  0  0  0  0  0  0  0  0
 -111.9275  -65.2488   -1.6134 C   0  0  0  0  0  0  0  0  0  0  0  0
 -112.2638  -64.2789   -2.3358 O   0  0  0  0  0  0  0  0  0  0  0  0
 -112.7161  -66.3429   -1.5032 N   0  0  0  0  0  0  0  0  0  0  0  0
 -112.3736  -67.3918   -0.7563 C   0  0  0  0  0  0  0  0  0  0  0  0
 -113.1714  -68.4673   -0.6421 N   0  0  0  0  0  0  0  0  0  0  0  0
 -111.2561  -67.3870   -0.0623 N   0  0  0  0  0  0  0  0  0  0  0  0
 -110.4353  -66.3471   -0.1081 C   0  0  0  0  0  0  0  0  0  0  0  0
  1  2  1  6
  1  3  1  0
  3  4  1  1
  5  4  1  6
  5  6  1  0
  6  7  1  0
  6 16  1  0
  7  8  2  0
  8  9  1  0
  9 10  1  0
  9 16  2  0
 10 11  2  0
 10 12  1  0
 12 13  1  0
 13 14  1  0
 13 15  2  0
 15 16  1  0
M  END
$$$$
