
     RDKit          3D

 16 17  0  0  0  0  0  0  0  0999 V2000
   -6.9653  -98.4980 -534.2649 C   0  0  0  0  0  0  0  0  0  0  0  0
   -5.6247  -98.9538 -534.5349 O   0  0  0  0  0  0  0  0  0  0  0  0
   -7.0940  -97.0191 -534.6071 C   0  0  0  0  0  0  0  0  0  0  0  0
   -7.0284  -96.3277 -533.3641 O   0  0  0  0  0  0  0  0  0  0  0  0
   -6.2632  -95.1104 -533.4208 C   0  0  0  0  0  0  0  0  0  0  0  0
   -5.0272  -95.5594 -532.7882 N   0  0  0  0  0  0  0  0  0  0  0  0
   -4.8791  -96.6278 -531.9855 C   0  0  0  0  0  0  0  0  0  0  0  0
   -3.5627  -96.7478 -531.6468 N   0  0  0  0  0  0  0  0  0  0  0  0
   -2.9007  -95.7533 -532.2836 C   0  0  0  0  0  0  0  0  0  0  0  0
   -1.5708  -95.3503 -532.3500 C   0  0  0  0  0  0  0  0  0  0  0  0
   -0.6666  -95.9612 -531.7294 O   0  0  0  0  0  0  0  0  0  0  0  0
   -1.2855  -94.2696 -533.1127 N   0  0  0  0  0  0  0  0  0  0  0  0
   -2.2249  -93.6143 -533.7938 C   0  0  0  0  0  0  0  0  0  0  0  0
   -1.9327  -92.5331 -534.5366 N   0  0  0  0  0  0  0  0  0  0  0  0
   -3.4864  -93.9798 -533.7211 N   0  0  0  0  0  0  0  0  0  0  0  0
   -3.8481  -95.0216 -532.9857 C   0  0  0  0  0  0  0  0  0  0  0  0
  1  2  1  6
  1  3  1  0
  3  4  1  1
  5  4  1  6
  5  6  1  0
  6  7  1  0
  6 16  1  0
  7  8  2  0
  8  9  1  0
  9 10  1  0
  9 16  2  0
 10 11  2  0
 10 12  1  0
 12 13  1  0
 13 14  1  0
 13 15  2  0
 15 16  1  0
M  END
$$$$
