
     RDKit          3D

 16 17  0  0  0  0  0  0  0  0999 V2000
  100.9036 -303.5193 -248.7676 C   0  0  0  0  0  0  0  0  0  0  0  0
  100.3089 -303.5919 -250.0788 O   0  0  0  0  0  0  0  0  0  0  0  0
   99.8524 -303.7956 -247.7001 C   0  0  0  0  0  0  0  0  0  0  0  0
   99.0986 -304.9047 -248.1784 O   0  0  0  0  0  0  0  0  0  0  0  0
   99.9112 -306.0022 -248.6318 C   0  0  0  0  0  0  0  0  0  0  0  0
  100.1900 -306.6539 -247.3563 N   0  0  0  0  0  0  0  0  0  0  0  0
   99.7504 -306.2682 -246.1457 C   0  0  0  0  0  0  0  0  0  0  0  0
  100.1754 -307.1694 -245.2131 N   0  0  0  0  0  0  0  0  0  0  0  0
  100.8554 -308.1324 -245.8779 C   0  0  0  0  0  0  0  0  0  0  0  0
  101.5127 -309.3002 -245.5044 C   0  0  0  0  0  0  0  0  0  0  0  0
  101.5629 -309.6725 -244.3066 O   0  0  0  0  0  0  0  0  0  0  0  0
  102.0991 -310.0249 -246.4851 N   0  0  0  0  0  0  0  0  0  0  0  0
  102.0458 -309.6599 -247.7654 C   0  0  0  0  0  0  0  0  0  0  0  0
  102.6446 -310.3794 -248.7299 N   0  0  0  0  0  0  0  0  0  0  0  0
  101.4410 -308.5478 -248.1230 N   0  0  0  0  0  0  0  0  0  0  0  0
  100.8523 -307.7767 -247.2195 C   0  0  0  0  0  0  0  0  0  0  0  0
  1  2  1  6
  1  3  1  0
  3  4  1  1
  5  4  1  6
  5  6  1  0
  6  7  1  0
  6 16  1  0
  7  8  2  0
  8  9  1  0
  9 10  1  0
  9 16  2  0
 10 11  2  0
 10 12  1  0
 12 13  1  0
 13 14  1  0
 13 15  2  0
 15 16  1  0
M  END
$$$$
