
     RDKit          3D

 16 17  0  0  0  0  0  0  0  0999 V2000
  433.5030  578.6293   72.0340 C   0  0  0  0  0  0  0  0  0  0  0  0
  432.8944  579.6448   72.8565 O   0  0  0  0  0  0  0  0  0  0  0  0
  432.4479  577.6359   71.5624 C   0  0  0  0  0  0  0  0  0  0  0  0
  432.7522  577.3690   70.1972 O   0  0  0  0  0  0  0  0  0  0  0  0
  431.6232  577.5103   69.3164 C   0  0  0  0  0  0  0  0  0  0  0  0
  432.3045  577.9412   68.0999 N   0  0  0  0  0  0  0  0  0  0  0  0
  431.8594  578.8436   67.2083 C   0  0  0  0  0  0  0  0  0  0  0  0
  432.8082  579.0176   66.2433 N   0  0  0  0  0  0  0  0  0  0  0  0
  433.8575  578.2301   66.5771 C   0  0  0  0  0  0  0  0  0  0  0  0
  435.1041  577.9727   66.0159 C   0  0  0  0  0  0  0  0  0  0  0  0
  435.4771  578.5331   64.9565 O   0  0  0  0  0  0  0  0  0  0  0  0
  435.9047  577.0901   66.6573 N   0  0  0  0  0  0  0  0  0  0  0  0
  435.5383  576.4944   67.7915 C   0  0  0  0  0  0  0  0  0  0  0  0
  436.3359  575.6085   68.4128 N   0  0  0  0  0  0  0  0  0  0  0  0
  434.3545  576.7208   68.3181 N   0  0  0  0  0  0  0  0  0  0  0  0
  433.5075  577.5632   67.7429 C   0  0  0  0  0  0  0  0  0  0  0  0
  1  2  1  6
  1  3  1  0
  3  4  1  1
  5  4  1  6
  5  6  1  0
  6  7  1  0
  6 16  1  0
  7  8  2  0
  8  9  1  0
  9 10  1  0
  9 16  2  0
 10 11  2  0
 10 12  1  0
 12 13  1  0
 13 14  1  0
 13 15  2  0
 15 16  1  0
M  END
$$$$
