
     RDKit          3D

 16 17  0  0  0  0  0  0  0  0999 V2000
  -90.8203  142.6183 -217.9230 C   0  0  0  0  0  0  0  0  0  0  0  0
  -90.6140  142.1141 -216.5884 O   0  0  0  0  0  0  0  0  0  0  0  0
  -90.1439  143.9744 -218.0804 C   0  0  0  0  0  0  0  0  0  0  0  0
  -88.9505  143.7275 -218.8169 O   0  0  0  0  0  0  0  0  0  0  0  0
  -87.9572  144.7579 -218.6683 C   0  0  0  0  0  0  0  0  0  0  0  0
  -88.4047  145.3617 -217.4175 N   0  0  0  0  0  0  0  0  0  0  0  0
  -89.5663  145.1250 -216.7831 C   0  0  0  0  0  0  0  0  0  0  0  0
  -89.5863  145.8342 -215.6174 N   0  0  0  0  0  0  0  0  0  0  0  0
  -88.4020  146.4843 -215.5323 C   0  0  0  0  0  0  0  0  0  0  0  0
  -87.8224  147.3427 -214.6034 C   0  0  0  0  0  0  0  0  0  0  0  0
  -88.4211  147.6739 -213.5509 O   0  0  0  0  0  0  0  0  0  0  0  0
  -86.5824  147.8098 -214.8771 N   0  0  0  0  0  0  0  0  0  0  0  0
  -85.9197  147.4600 -215.9789 C   0  0  0  0  0  0  0  0  0  0  0  0
  -84.6944  147.9418 -216.2482 N   0  0  0  0  0  0  0  0  0  0  0  0
  -86.4692  146.6629 -216.8696 N   0  0  0  0  0  0  0  0  0  0  0  0
  -87.6861  146.1724 -216.6796 C   0  0  0  0  0  0  0  0  0  0  0  0
  1  2  1  6
  1  3  1  0
  3  4  1  1
  5  4  1  6
  5  6  1  0
  6  7  1  0
  6 16  1  0
  7  8  2  0
  8  9  1  0
  9 10  1  0
  9 16  2  0
 10 11  2  0
 10 12  1  0
 12 13  1  0
 13 14  1  0
 13 15  2  0
 15 16  1  0
M  END
$$$$
