
     RDKit          3D

 16 17  0  0  0  0  0  0  0  0999 V2000
  144.4891 -184.4848  163.5249 C   0  0  0  0  0  0  0  0  0  0  0  0
  145.0291 -184.6641  164.8494 O   0  0  0  0  0  0  0  0  0  0  0  0
  145.6199 -184.3421  162.5139 C   0  0  0  0  0  0  0  0  0  0  0  0
  145.2476 -183.2585  161.6686 O   0  0  0  0  0  0  0  0  0  0  0  0
  144.8530 -183.6672  160.3466 C   0  0  0  0  0  0  0  0  0  0  0  0
  145.3638 -185.0340  160.3419 N   0  0  0  0  0  0  0  0  0  0  0  0
  145.6961 -185.7699  161.4170 C   0  0  0  0  0  0  0  0  0  0  0  0
  146.0724 -187.0142  161.0022 N   0  0  0  0  0  0  0  0  0  0  0  0
  145.9331 -187.0391  159.6560 C   0  0  0  0  0  0  0  0  0  0  0  0
  146.1432 -187.9964  158.6687 C   0  0  0  0  0  0  0  0  0  0  0  0
  146.5515 -189.1503  158.9477 O   0  0  0  0  0  0  0  0  0  0  0  0
  145.8895 -187.6367  157.3891 N   0  0  0  0  0  0  0  0  0  0  0  0
  145.4399 -186.4239  157.0692 C   0  0  0  0  0  0  0  0  0  0  0  0
  145.2053 -186.0723  155.7934 N   0  0  0  0  0  0  0  0  0  0  0  0
  145.2559 -185.5086  157.9960 N   0  0  0  0  0  0  0  0  0  0  0  0
  145.4933 -185.7799  159.2717 C   0  0  0  0  0  0  0  0  0  0  0  0
  1  2  1  6
  1  3  1  0
  3  4  1  1
  5  4  1  6
  5  6  1  0
  6  7  1  0
  6 16  1  0
  7  8  2  0
  8  9  1  0
  9 10  1  0
  9 16  2  0
 10 11  2  0
 10 12  1  0
 12 13  1  0
 13 14  1  0
 13 15  2  0
 15 16  1  0
M  END
$$$$
