
     RDKit          3D

 16 17  0  0  0  0  0  0  0  0999 V2000
  171.4016  -72.3649  297.8200 C   0  0  0  0  0  0  0  0  0  0  0  0
  172.6990  -71.7548  297.6690 O   0  0  0  0  0  0  0  0  0  0  0  0
  170.5903  -72.1928  296.5419 C   0  0  0  0  0  0  0  0  0  0  0  0
  171.5085  -71.7166  295.5632 O   0  0  0  0  0  0  0  0  0  0  0  0
  172.6172  -70.9869  296.1185 C   0  0  0  0  0  0  0  0  0  0  0  0
  172.0895  -69.6286  296.0414 N   0  0  0  0  0  0  0  0  0  0  0  0
  170.8181  -69.2485  296.2570 C   0  0  0  0  0  0  0  0  0  0  0  0
  170.7380  -67.8905  296.1499 N   0  0  0  0  0  0  0  0  0  0  0  0
  171.9898  -67.4413  295.8977 C   0  0  0  0  0  0  0  0  0  0  0  0
  172.5565  -66.1869  295.6959 C   0  0  0  0  0  0  0  0  0  0  0  0
  171.8656  -65.1394  295.7328 O   0  0  0  0  0  0  0  0  0  0  0  0
  173.8874  -66.1364  295.4572 N   0  0  0  0  0  0  0  0  0  0  0  0
  174.6450  -67.2321  295.4293 C   0  0  0  0  0  0  0  0  0  0  0  0
  175.9637  -67.1720  295.1765 N   0  0  0  0  0  0  0  0  0  0  0  0
  174.1125  -68.4227  295.6017 N   0  0  0  0  0  0  0  0  0  0  0  0
  172.8133  -68.5565  295.8290 C   0  0  0  0  0  0  0  0  0  0  0  0
  1  2  1  6
  1  3  1  0
  3  4  1  1
  5  4  1  6
  5  6  1  0
  6  7  1  0
  6 16  1  0
  7  8  2  0
  8  9  1  0
  9 10  1  0
  9 16  2  0
 10 11  2  0
 10 12  1  0
 12 13  1  0
 13 14  1  0
 13 15  2  0
 15 16  1  0
M  END
$$$$
