
     RDKit          3D

 16 17  0  0  0  0  0  0  0  0999 V2000
  302.4296  398.9190  153.0571 C   0  0  0  0  0  0  0  0  0  0  0  0
  302.7882  399.5744  151.8243 O   0  0  0  0  0  0  0  0  0  0  0  0
  300.9984  399.2736  153.4408 C   0  0  0  0  0  0  0  0  0  0  0  0
  300.2594  399.2675  152.2236 O   0  0  0  0  0  0  0  0  0  0  0  0
  300.6220  398.1965  151.3338 C   0  0  0  0  0  0  0  0  0  0  0  0
  299.3316  397.5274  151.2049 N   0  0  0  0  0  0  0  0  0  0  0  0
  299.0597  396.4478  150.4507 C   0  0  0  0  0  0  0  0  0  0  0  0
  297.7578  396.0885  150.6462 N   0  0  0  0  0  0  0  0  0  0  0  0
  297.2457  396.9465  151.5593 C   0  0  0  0  0  0  0  0  0  0  0  0
  296.0044  397.0997  152.1683 C   0  0  0  0  0  0  0  0  0  0  0  0
  295.0454  396.3320  151.9091 O   0  0  0  0  0  0  0  0  0  0  0  0
  295.8675  398.1117  153.0560 N   0  0  0  0  0  0  0  0  0  0  0  0
  296.8747  398.9295  153.3601 C   0  0  0  0  0  0  0  0  0  0  0  0
  296.7237  399.9409  154.2321 N   0  0  0  0  0  0  0  0  0  0  0  0
  298.0458  398.8008  152.7747 N   0  0  0  0  0  0  0  0  0  0  0  0
  298.2557  397.8407  151.8849 C   0  0  0  0  0  0  0  0  0  0  0  0
  1  2  1  6
  1  3  1  0
  3  4  1  1
  5  4  1  6
  5  6  1  0
  6  7  1  0
  6 16  1  0
  7  8  2  0
  8  9  1  0
  9 10  1  0
  9 16  2  0
 10 11  2  0
 10 12  1  0
 12 13  1  0
 13 14  1  0
 13 15  2  0
 15 16  1  0
M  END
$$$$
