
     RDKit          3D

 16 17  0  0  0  0  0  0  0  0999 V2000
  433.0529  812.8225  -37.0066 C   0  0  0  0  0  0  0  0  0  0  0  0
  432.1043  813.8108  -37.4549 O   0  0  0  0  0  0  0  0  0  0  0  0
  433.3712  811.8517  -38.1371 C   0  0  0  0  0  0  0  0  0  0  0  0
  432.7511  812.3947  -39.2982 O   0  0  0  0  0  0  0  0  0  0  0  0
  431.4395  811.8618  -39.5545 C   0  0  0  0  0  0  0  0  0  0  0  0
  431.3514  810.8802  -38.4782 N   0  0  0  0  0  0  0  0  0  0  0  0
  430.6021  809.7639  -38.4700 C   0  0  0  0  0  0  0  0  0  0  0  0
  430.8403  809.0797  -37.3134 N   0  0  0  0  0  0  0  0  0  0  0  0
  431.7741  809.7797  -36.6275 C   0  0  0  0  0  0  0  0  0  0  0  0
  432.4258  809.6083  -35.4104 C   0  0  0  0  0  0  0  0  0  0  0  0
  432.1961  808.6170  -34.6748 O   0  0  0  0  0  0  0  0  0  0  0  0
  433.3221  810.5544  -35.0460 N   0  0  0  0  0  0  0  0  0  0  0  0
  433.5952  811.6068  -35.8166 C   0  0  0  0  0  0  0  0  0  0  0  0
  434.4764  812.5483  -35.4381 N   0  0  0  0  0  0  0  0  0  0  0  0
  432.9697  811.7833  -36.9598 N   0  0  0  0  0  0  0  0  0  0  0  0
  432.0689  810.9072  -37.3815 C   0  0  0  0  0  0  0  0  0  0  0  0
  1  2  1  6
  1  3  1  0
  3  4  1  1
  5  4  1  6
  5  6  1  0
  6  7  1  0
  6 16  1  0
  7  8  2  0
  8  9  1  0
  9 10  1  0
  9 16  2  0
 10 11  2  0
 10 12  1  0
 12 13  1  0
 13 14  1  0
 13 15  2  0
 15 16  1  0
M  END
$$$$
