
     RDKit          3D

 16 17  0  0  0  0  0  0  0  0999 V2000
   32.5978  116.3694  100.4847 C   0  0  0  0  0  0  0  0  0  0  0  0
   31.2401  115.9388  100.2631 O   0  0  0  0  0  0  0  0  0  0  0  0
   32.7870  117.7903   99.9684 C   0  0  0  0  0  0  0  0  0  0  0  0
   31.5031  118.2123   99.5201 O   0  0  0  0  0  0  0  0  0  0  0  0
   30.6310  117.1254   99.1617 C   0  0  0  0  0  0  0  0  0  0  0  0
   29.3358  117.7428   99.4270 N   0  0  0  0  0  0  0  0  0  0  0  0
   29.1145  119.0180   99.7912 C   0  0  0  0  0  0  0  0  0  0  0  0
   27.7688  119.2247   99.8833 N   0  0  0  0  0  0  0  0  0  0  0  0
   27.1677  118.0624   99.5367 C   0  0  0  0  0  0  0  0  0  0  0  0
   25.8469  117.6393   99.4277 C   0  0  0  0  0  0  0  0  0  0  0  0
   24.8870  118.4101   99.6728 O   0  0  0  0  0  0  0  0  0  0  0  0
   25.6333  116.3591   99.0450 N   0  0  0  0  0  0  0  0  0  0  0  0
   26.6348  115.5265   98.7633 C   0  0  0  0  0  0  0  0  0  0  0  0
   26.4116  114.2524   98.3986 N   0  0  0  0  0  0  0  0  0  0  0  0
   27.8859  115.9151   98.8815 N   0  0  0  0  0  0  0  0  0  0  0  0
   28.1778  117.1508   99.2625 C   0  0  0  0  0  0  0  0  0  0  0  0
  1  2  1  6
  1  3  1  0
  3  4  1  1
  5  4  1  6
  5  6  1  0
  6  7  1  0
  6 16  1  0
  7  8  2  0
  8  9  1  0
  9 10  1  0
  9 16  2  0
 10 11  2  0
 10 12  1  0
 12 13  1  0
 13 14  1  0
 13 15  2  0
 15 16  1  0
M  END
$$$$
