
     RDKit          3D

 16 17  0  0  0  0  0  0  0  0999 V2000
   31.6688  223.7563 -165.0131 C   0  0  0  0  0  0  0  0  0  0  0  0
   31.0355  225.0512 -164.9989 O   0  0  0  0  0  0  0  0  0  0  0  0
   30.6155  222.6596 -165.1083 C   0  0  0  0  0  0  0  0  0  0  0  0
   30.8288  221.8202 -163.9781 O   0  0  0  0  0  0  0  0  0  0  0  0
   30.5517  222.4633 -162.7212 C   0  0  0  0  0  0  0  0  0  0  0  0
   29.6240  221.4971 -162.1421 N   0  0  0  0  0  0  0  0  0  0  0  0
   28.8135  221.6956 -161.0879 C   0  0  0  0  0  0  0  0  0  0  0  0
   28.0583  220.5758 -160.8934 N   0  0  0  0  0  0  0  0  0  0  0  0
   28.3964  219.6992 -161.8679 C   0  0  0  0  0  0  0  0  0  0  0  0
   27.9891  218.4141 -162.2114 C   0  0  0  0  0  0  0  0  0  0  0  0
   27.1078  217.8062 -161.5560 O   0  0  0  0  0  0  0  0  0  0  0  0
   28.5807  217.8399 -163.2843 N   0  0  0  0  0  0  0  0  0  0  0  0
   29.5065  218.4705 -164.0060 C   0  0  0  0  0  0  0  0  0  0  0  0
   30.0983  217.8851 -165.0610 N   0  0  0  0  0  0  0  0  0  0  0  0
   29.9085  219.6787 -163.6759 N   0  0  0  0  0  0  0  0  0  0  0  0
   29.3856  220.3043 -162.6307 C   0  0  0  0  0  0  0  0  0  0  0  0
  1  2  1  6
  1  3  1  0
  3  4  1  1
  5  4  1  6
  5  6  1  0
  6  7  1  0
  6 16  1  0
  7  8  2  0
  8  9  1  0
  9 10  1  0
  9 16  2  0
 10 11  2  0
 10 12  1  0
 12 13  1  0
 13 14  1  0
 13 15  2  0
 15 16  1  0
M  END
$$$$
