
     RDKit          3D

 16 17  0  0  0  0  0  0  0  0999 V2000
 -572.1179  -58.4769 -289.2675 C   0  0  0  0  0  0  0  0  0  0  0  0
 -570.9364  -57.7523 -288.8719 O   0  0  0  0  0  0  0  0  0  0  0  0
 -572.2313  -59.7690 -288.4682 C   0  0  0  0  0  0  0  0  0  0  0  0
 -572.5208  -60.7878 -289.4200 O   0  0  0  0  0  0  0  0  0  0  0  0
 -571.4847  -61.7797 -289.5363 C   0  0  0  0  0  0  0  0  0  0  0  0
 -571.6658  -62.4835 -288.2706 N   0  0  0  0  0  0  0  0  0  0  0  0
 -572.5679  -63.4453 -288.0099 C   0  0  0  0  0  0  0  0  0  0  0  0
 -572.3801  -63.8941 -286.7348 N   0  0  0  0  0  0  0  0  0  0  0  0
 -571.3247  -63.2136 -286.2300 C   0  0  0  0  0  0  0  0  0  0  0  0
 -570.6511  -63.2171 -285.0126 C   0  0  0  0  0  0  0  0  0  0  0  0
 -570.9891  -63.9812 -284.0760 O   0  0  0  0  0  0  0  0  0  0  0  0
 -569.6115  -62.3618 -284.8747 N   0  0  0  0  0  0  0  0  0  0  0  0
 -569.2230  -61.5524 -285.8594 C   0  0  0  0  0  0  0  0  0  0  0  0
 -568.1982  -60.6966 -285.7065 N   0  0  0  0  0  0  0  0  0  0  0  0
 -569.8670  -61.5320 -287.0064 N   0  0  0  0  0  0  0  0  0  0  0  0
 -570.9034  -62.3313 -287.2152 C   0  0  0  0  0  0  0  0  0  0  0  0
  1  2  1  6
  1  3  1  0
  3  4  1  1
  5  4  1  6
  5  6  1  0
  6  7  1  0
  6 16  1  0
  7  8  2  0
  8  9  1  0
  9 10  1  0
  9 16  2  0
 10 11  2  0
 10 12  1  0
 12 13  1  0
 13 14  1  0
 13 15  2  0
 15 16  1  0
M  END
$$$$
