
     RDKit          3D

 16 17  0  0  0  0  0  0  0  0999 V2000
   95.0188    4.1342  166.8380 C   0  0  0  0  0  0  0  0  0  0  0  0
   96.2909    4.7290  167.1638 O   0  0  0  0  0  0  0  0  0  0  0  0
   94.0470    5.2060  166.3605 C   0  0  0  0  0  0  0  0  0  0  0  0
   93.2791    4.5980  165.3269 O   0  0  0  0  0  0  0  0  0  0  0  0
   94.0480    4.2628  164.1579 C   0  0  0  0  0  0  0  0  0  0  0  0
   95.2518    3.7338  164.7905 N   0  0  0  0  0  0  0  0  0  0  0  0
   95.4294    2.4863  165.2597 C   0  0  0  0  0  0  0  0  0  0  0  0
   96.7081    2.3648  165.7203 N   0  0  0  0  0  0  0  0  0  0  0  0
   97.3218    3.5500  165.4947 C   0  0  0  0  0  0  0  0  0  0  0  0
   98.5997    4.0489  165.7259 C   0  0  0  0  0  0  0  0  0  0  0  0
   99.4944    3.3458  166.2561 O   0  0  0  0  0  0  0  0  0  0  0  0
   98.8448    5.3272  165.3560 N   0  0  0  0  0  0  0  0  0  0  0  0
   97.9172    6.0883  164.7766 C   0  0  0  0  0  0  0  0  0  0  0  0
   98.1670    7.3616  164.4266 N   0  0  0  0  0  0  0  0  0  0  0  0
   96.7020    5.6282  164.5713 N   0  0  0  0  0  0  0  0  0  0  0  0
   96.3798    4.3895  164.9167 C   0  0  0  0  0  0  0  0  0  0  0  0
  1  2  1  6
  1  3  1  0
  3  4  1  1
  5  4  1  6
  5  6  1  0
  6  7  1  0
  6 16  1  0
  7  8  2  0
  8  9  1  0
  9 10  1  0
  9 16  2  0
 10 11  2  0
 10 12  1  0
 12 13  1  0
 13 14  1  0
 13 15  2  0
 15 16  1  0
M  END
$$$$
