
     RDKit          3D

 16 17  0  0  0  0  0  0  0  0999 V2000
 -184.8382  171.1223  -38.6640 C   0  0  0  0  0  0  0  0  0  0  0  0
 -185.6828  171.9205  -39.5173 O   0  0  0  0  0  0  0  0  0  0  0  0
 -185.6129  169.9208  -38.1376 C   0  0  0  0  0  0  0  0  0  0  0  0
 -185.1142  168.7959  -38.8544 O   0  0  0  0  0  0  0  0  0  0  0  0
 -183.8208  169.0156  -39.4455 C   0  0  0  0  0  0  0  0  0  0  0  0
 -183.0272  169.2378  -38.2414 N   0  0  0  0  0  0  0  0  0  0  0  0
 -181.8361  168.6851  -37.9525 C   0  0  0  0  0  0  0  0  0  0  0  0
 -181.3905  169.1897  -36.7655 N   0  0  0  0  0  0  0  0  0  0  0  0
 -182.3140  170.0869  -36.3480 C   0  0  0  0  0  0  0  0  0  0  0  0
 -182.4356  170.9224  -35.2423 C   0  0  0  0  0  0  0  0  0  0  0  0
 -181.5571  170.9597  -34.3464 O   0  0  0  0  0  0  0  0  0  0  0  0
 -183.5416  171.6983  -35.1674 N   0  0  0  0  0  0  0  0  0  0  0  0
 -184.4799  171.6890  -36.1133 C   0  0  0  0  0  0  0  0  0  0  0  0
 -185.5819  172.4529  -36.0216 N   0  0  0  0  0  0  0  0  0  0  0  0
 -184.3795  170.8886  -37.1523 N   0  0  0  0  0  0  0  0  0  0  0  0
 -183.3314  170.0891  -37.2921 C   0  0  0  0  0  0  0  0  0  0  0  0
  1  2  1  6
  1  3  1  0
  3  4  1  1
  5  4  1  6
  5  6  1  0
  6  7  1  0
  6 16  1  0
  7  8  2  0
  8  9  1  0
  9 10  1  0
  9 16  2  0
 10 11  2  0
 10 12  1  0
 12 13  1  0
 13 14  1  0
 13 15  2  0
 15 16  1  0
M  END
$$$$
