
     RDKit          3D

 44 48  0  0  0  0  0  0  0  0999 V2000
  -24.8893  -49.4449   61.4919 C   0  0  0  0  0  0  0  0  0  0  0  0
  -20.8680  -49.4416   58.7947 C   0  0  0  0  0  0  0  0  0  0  0  0
  -22.3488  -49.4493   59.2026 C   0  0  1  0  0  0  0  0  0  0  0  0
  -22.7059  -50.7210   61.2287 C   0  0  0  0  0  0  0  0  0  0  0  0
  -20.4382  -48.1077   58.0671 C   0  0  0  0  0  0  0  0  0  0  0  0
  -20.8069  -46.7738   58.7901 C   0  0  0  0  0  0  0  0  0  0  0  0
  -23.1903  -49.0781   58.0170 C   0  0  0  0  0  0  0  0  0  0  0  0
  -23.9586  -48.9284   56.0300 C   0  0  0  0  0  0  0  0  0  0  0  0
  -28.4136  -42.7341   55.3558 C   0  0  0  0  0  0  0  0  0  0  0  0
  -25.0087  -46.5499   56.2642 C   0  0  0  0  0  0  0  0  0  0  0  0
  -24.8970  -51.9725   56.9998 Cl  0  0  0  0  0  0  0  0  0  0  0  0
  -27.6688  -49.8648   58.9445 C   0  0  0  0  0  0  0  0  0  0  0  0
  -27.0321  -50.6675   58.0074 C   0  0  0  0  0  0  0  0  0  0  0  0
  -25.7120  -51.0220   58.2067 C   0  0  0  0  0  0  0  0  0  0  0  0
  -25.0087  -50.5987   59.3177 C   0  0  0  0  0  0  0  0  0  0  0  0
  -25.6360  -49.7774   60.2667 C   0  0  0  0  0  0  0  0  0  0  0  0
  -26.9769  -49.4087   60.0640 C   0  0  0  0  0  0  0  0  0  0  0  0
  -27.6506  -48.5689   61.0033 N   0  0  0  0  0  0  0  0  0  0  0  0
  -27.5069  -48.4085   62.3214 C   0  0  0  0  0  0  0  0  0  0  0  0
  -28.4567  -47.6412   62.7767 N   0  0  0  0  0  0  0  0  0  0  0  0
  -29.2091  -47.3099   61.6980 N   0  0  0  0  0  0  0  0  0  0  0  0
  -28.7339  -47.8547   60.6206 N   0  0  0  0  0  0  0  0  0  0  0  0
  -23.8587  -50.1519   61.9646 C   0  0  0  0  0  0  0  0  0  0  0  0
  -21.7053  -51.1589   61.8120 O   0  0  0  0  0  0  0  0  0  0  0  0
  -22.7736  -50.6741   59.8813 N   0  0  0  0  0  0  0  0  0  0  0  0
  -23.2270  -49.7304   56.8689 N   0  0  0  0  0  0  0  0  0  0  0  0
  -24.3672  -47.7929   56.6935 C   0  0  0  0  0  0  0  0  0  0  0  0
  -23.8869  -47.9305   57.9661 N   0  0  0  0  0  0  0  0  0  0  0  0
  -26.1676  -46.6019   55.4843 C   0  0  0  0  0  0  0  0  0  0  0  0
  -26.8614  -45.4490   55.1686 C   0  0  0  0  0  0  0  0  0  0  0  0
  -26.4189  -44.2126   55.6403 C   0  0  0  0  0  0  0  0  0  0  0  0
  -25.2469  -44.1515   56.3986 C   0  0  0  0  0  0  0  0  0  0  0  0
  -24.5260  -45.3025   56.7058 C   0  0  0  0  0  0  0  0  0  0  0  0
  -27.0707  -42.9835   55.3503 N   0  0  0  0  0  0  0  0  0  0  0  0
  -28.9892  -41.9036   56.0296 O   0  0  0  0  0  0  0  0  0  0  0  0
  -29.0355  -43.5727   54.5027 O   0  0  0  0  0  0  0  0  0  0  0  0
  -28.4740  -43.6429   53.1652 C   0  0  0  0  0  0  0  0  0  0  0  0
  -20.8754  -45.5197   57.9015 C   0  0  0  0  0  0  0  0  0  0  0  0
  -21.9877  -45.4766   56.8396 C   0  0  1  0  0  0  0  0  0  0  0  0
  -23.3050  -45.2616   57.4214 N   0  0  0  0  0  0  0  0  0  0  0  0
  -21.7568  -44.4032   55.7873 C   0  0  0  0  0  0  0  0  0  0  0  0
  -22.6339  -43.8372   55.1973 O   0  0  0  0  0  0  0  0  0  0  0  0
  -20.4606  -44.2197   55.5599 O   0  0  0  0  0  0  0  0  0  0  0  0
  -20.0633  -43.8663   54.2065 C   0  0  0  0  0  0  0  0  0  0  0  0
  1 16  1  0
  1 23  2  0
  2  3  1  6
  5  2  1  6
  3  7  1  0
  3 25  1  6
  4 23  1  0
  4 24  2  0
  4 25  1  0
  6  5  1  6
  6 38  1  0
  7 26  2  0
  7 28  1  0
  8 26  1  0
  8 27  2  0
  9 34  1  0
  9 35  2  0
  9 36  1  0
 10 27  1  0
 10 29  1  0
 10 33  2  0
 11 14  1  0
 12 13  2  0
 12 17  1  0
 13 14  1  0
 14 15  2  0
 15 16  1  0
 16 17  2  0
 17 18  1  0
 18 19  1  0
 18 22  1  0
 19 20  2  0
 20 21  1  0
 21 22  2  0
 27 28  1  0
 29 30  2  0
 30 31  1  0
 31 32  2  0
 31 34  1  0
 32 33  1  0
 33 40  1  0
 37 36  1  6
 38 39  1  1
 39 40  1  0
 39 41  1  6
 41 42  2  0
 41 43  1  0
 44 43  1  6
M  END
$$$$
