
     RDKit          3D

 44 48  0  0  0  0  0  0  0  0999 V2000
 3677.0376 5922.830110454.7422 C   0  0  0  0  0  0  0  0  0  0  0  0
 3679.5757 5919.060110453.0391 C   0  0  0  0  0  0  0  0  0  0  0  0
 3678.0945 5918.664610452.9404 C   0  0  1  0  0  0  0  0  0  0  0  0
 3676.8081 5920.400410454.0264 C   0  0  0  0  0  0  0  0  0  0  0  0
 3680.5420 5917.814010453.1064 C   0  0  0  0  0  0  0  0  0  0  0  0
 3680.3462 5916.725110452.0029 C   0  0  0  0  0  0  0  0  0  0  0  0
 3677.7742 5917.674810454.0205 C   0  0  0  0  0  0  0  0  0  0  0  0
 3677.6980 5916.664110455.9004 C   0  0  0  0  0  0  0  0  0  0  0  0
 3675.5132 5909.383310455.0938 C   0  0  0  0  0  0  0  0  0  0  0  0
 3677.3022 5914.260710454.9619 C   0  0  0  0  0  0  0  0  0  0  0  0
 3675.1006 5927.555210454.0381 Cl  0  0  0  0  0  0  0  0  0  0  0  0
 3675.5117 5924.395510451.6406 C   0  0  0  0  0  0  0  0  0  0  0  0
 3675.2324 5925.671410452.1152 C   0  0  0  0  0  0  0  0  0  0  0  0
 3675.5122 5925.978510453.4307 C   0  0  0  0  0  0  0  0  0  0  0  0
 3676.0662 5925.049810454.2900 C   0  0  0  0  0  0  0  0  0  0  0  0
 3676.3413 5923.752910453.8291 C   0  0  0  0  0  0  0  0  0  0  0  0
 3676.0520 5923.433610452.4902 C   0  0  0  0  0  0  0  0  0  0  0  0
 3676.3130 5922.123510451.9834 N   0  0  0  0  0  0  0  0  0  0  0  0
 3676.7312 5921.695310450.7910 C   0  0  0  0  0  0  0  0  0  0  0  0
 3676.6729 5920.394510450.7441 N   0  0  0  0  0  0  0  0  0  0  0  0
 3676.2104 5920.005410451.9580 N   0  0  0  0  0  0  0  0  0  0  0  0
 3675.9951 5921.035610452.7197 N   0  0  0  0  0  0  0  0  0  0  0  0
 3677.5342 5921.642610454.3818 C   0  0  0  0  0  0  0  0  0  0  0  0
 3675.9546 5919.901410454.7734 O   0  0  0  0  0  0  0  0  0  0  0  0
 3677.1765 5919.803210452.8740 N   0  0  0  0  0  0  0  0  0  0  0  0
 3677.9055 5917.888710455.3184 N   0  0  0  0  0  0  0  0  0  0  0  0
 3677.4309 5915.717810454.9365 C   0  0  0  0  0  0  0  0  0  0  0  0
 3677.4573 5916.397510453.7500 N   0  0  0  0  0  0  0  0  0  0  0  0
 3676.4570 5913.654810455.8955 C   0  0  0  0  0  0  0  0  0  0  0  0
 3676.2227 5912.294910455.8643 C   0  0  0  0  0  0  0  0  0  0  0  0
 3676.8196 5911.502410454.8809 C   0  0  0  0  0  0  0  0  0  0  0  0
 3677.6855 5912.098110453.9600 C   0  0  0  0  0  0  0  0  0  0  0  0
 3677.9482 5913.464810453.9951 C   0  0  0  0  0  0  0  0  0  0  0  0
 3676.6372 5910.096710454.7891 N   0  0  0  0  0  0  0  0  0  0  0  0
 3675.0098 5909.269010456.1963 O   0  0  0  0  0  0  0  0  0  0  0  0
 3675.0361 5908.786110453.9854 O   0  0  0  0  0  0  0  0  0  0  0  0
 3675.3516 5909.444810452.7285 C   0  0  0  0  0  0  0  0  0  0  0  0
 3680.8823 5915.323210452.3389 C   0  0  0  0  0  0  0  0  0  0  0  0
 3680.1892 5914.564010453.4824 C   0  0  1  0  0  0  0  0  0  0  0  0
 3678.8672 5914.082010453.1113 N   0  0  0  0  0  0  0  0  0  0  0  0
 3681.0000 5913.377410453.9814 C   0  0  0  0  0  0  0  0  0  0  0  0
 3680.9622 5912.957510455.1045 O   0  0  0  0  0  0  0  0  0  0  0  0
 3681.8013 5912.906710453.0303 O   0  0  0  0  0  0  0  0  0  0  0  0
 3682.3262 5911.561010453.2061 C   0  0  0  0  0  0  0  0  0  0  0  0
  1 16  1  0
  1 23  2  0
  2  3  1  6
  5  2  1  6
  3  7  1  0
  3 25  1  1
  4 23  1  0
  4 24  2  0
  4 25  1  0
  6  5  1  6
  6 38  1  0
  7 26  2  0
  7 28  1  0
  8 26  1  0
  8 27  2  0
  9 34  1  0
  9 35  2  0
  9 36  1  0
 10 27  1  0
 10 29  1  0
 10 33  2  0
 11 14  1  0
 12 13  2  0
 12 17  1  0
 13 14  1  0
 14 15  2  0
 15 16  1  0
 16 17  2  0
 17 18  1  0
 18 19  1  0
 18 22  1  0
 19 20  2  0
 20 21  1  0
 21 22  2  0
 27 28  1  0
 29 30  2  0
 30 31  1  0
 31 32  2  0
 31 34  1  0
 32 33  1  0
 33 40  1  0
 37 36  1  6
 38 39  1  1
 39 40  1  0
 39 41  1  6
 41 42  2  0
 41 43  1  0
 44 43  1  6
M  END
$$$$
