
     RDKit          3D

 44 48  0  0  0  0  0  0  0  0999 V2000
   12.1062   31.8909   11.4415 C   0  0  0  0  0  0  0  0  0  0  0  0
   16.1124   32.8335   13.7556 C   0  0  0  0  0  0  0  0  0  0  0  0
   15.0367   31.9514   14.4068 C   0  0  1  0  0  0  0  0  0  0  0  0
   13.4597   30.6018   13.1652 C   0  0  0  0  0  0  0  0  0  0  0  0
   16.4417   34.1257   14.6012 C   0  0  0  0  0  0  0  0  0  0  0  0
   16.7680   33.9015   16.1115 C   0  0  0  0  0  0  0  0  0  0  0  0
   13.8475   32.7974   14.7551 C   0  0  0  0  0  0  0  0  0  0  0  0
   12.2954   34.2623   14.6764 C   0  0  0  0  0  0  0  0  0  0  0  0
    9.6751   35.5464   21.7736 C   0  0  0  0  0  0  0  0  0  0  0  0
   12.0480   34.6145   17.2512 C   0  0  0  0  0  0  0  0  0  0  0  0
    7.7278   33.8262    9.5308 Cl  0  0  0  0  0  0  0  0  0  0  0  0
   11.0672   35.5028   10.9251 C   0  0  0  0  0  0  0  0  0  0  0  0
    9.7864   35.3262   10.4192 C   0  0  0  0  0  0  0  0  0  0  0  0
    9.3067   34.0454   10.2259 C   0  0  0  0  0  0  0  0  0  0  0  0
   10.0701   32.9337   10.5254 C   0  0  0  0  0  0  0  0  0  0  0  0
   11.3705   33.0973   11.0261 C   0  0  0  0  0  0  0  0  0  0  0  0
   11.8648   34.3988   11.2176 C   0  0  0  0  0  0  0  0  0  0  0  0
   13.1858   34.6090   11.7198 N   0  0  0  0  0  0  0  0  0  0  0  0
   13.6381   34.9416   12.9317 C   0  0  0  0  0  0  0  0  0  0  0  0
   14.9189   35.1744   12.8739 N   0  0  0  0  0  0  0  0  0  0  0  0
   15.2707   34.9700   11.5801 N   0  0  0  0  0  0  0  0  0  0  0  0
   14.2403   34.6224   10.8724 N   0  0  0  0  0  0  0  0  0  0  0  0
   12.8515   31.8028   12.5469 C   0  0  0  0  0  0  0  0  0  0  0  0
   12.8341   29.5412   13.2948 O   0  0  0  0  0  0  0  0  0  0  0  0
   14.7136   30.7450   13.6443 N   0  0  0  0  0  0  0  0  0  0  0  0
   13.1308   33.5020   13.8978 N   0  0  0  0  0  0  0  0  0  0  0  0
   12.5147   33.9965   16.0098 C   0  0  0  0  0  0  0  0  0  0  0  0
   13.4892   33.0378   16.0273 N   0  0  0  0  0  0  0  0  0  0  0  0
   10.6814   34.8373   17.4432 C   0  0  0  0  0  0  0  0  0  0  0  0
   10.2028   35.3050   18.6524 C   0  0  0  0  0  0  0  0  0  0  0  0
   11.0822   35.5478   19.7082 C   0  0  0  0  0  0  0  0  0  0  0  0
   12.4519   35.3517   19.5141 C   0  0  0  0  0  0  0  0  0  0  0  0
   12.9501   34.9016   18.2942 C   0  0  0  0  0  0  0  0  0  0  0  0
   10.6687   36.0387   20.9762 N   0  0  0  0  0  0  0  0  0  0  0  0
    9.7937   35.1679   22.9216 O   0  0  0  0  0  0  0  0  0  0  0  0
    8.5144   35.5166   21.0882 O   0  0  0  0  0  0  0  0  0  0  0  0
    7.7439   34.2912   21.2053 C   0  0  0  0  0  0  0  0  0  0  0  0
   16.5783   35.1193   17.0323 C   0  0  0  0  0  0  0  0  0  0  0  0
   15.1411   35.6349   17.2205 C   0  0  1  0  0  0  0  0  0  0  0  0
   14.3371   34.7514   18.0529 N   0  0  0  0  0  0  0  0  0  0  0  0
   15.0896   37.0288   17.8266 C   0  0  0  0  0  0  0  0  0  0  0  0
   14.7508   38.0119   17.2296 O   0  0  0  0  0  0  0  0  0  0  0  0
   15.5288   37.0274   19.0806 O   0  0  0  0  0  0  0  0  0  0  0  0
   14.5307   37.0236   20.1381 C   0  0  0  0  0  0  0  0  0  0  0  0
  1 16  1  0
  1 23  2  0
  2  3  1  6
  5  2  1  6
  3  7  1  0
  3 25  1  6
  4 23  1  0
  4 24  2  0
  4 25  1  0
  6  5  1  6
  6 38  1  0
  7 26  2  0
  7 28  1  0
  8 26  1  0
  8 27  2  0
  9 34  1  0
  9 35  2  0
  9 36  1  0
 10 27  1  0
 10 29  1  0
 10 33  2  0
 11 14  1  0
 12 13  2  0
 12 17  1  0
 13 14  1  0
 14 15  2  0
 15 16  1  0
 16 17  2  0
 17 18  1  0
 18 19  1  0
 18 22  1  0
 19 20  2  0
 20 21  1  0
 21 22  2  0
 27 28  1  0
 29 30  2  0
 30 31  1  0
 31 32  2  0
 31 34  1  0
 32 33  1  0
 33 40  1  0
 37 36  1  6
 38 39  1  1
 39 40  1  0
 39 41  1  1
 41 42  2  0
 41 43  1  0
 44 43  1  6
M  END
$$$$
