
     RDKit          3D

 44 48  0  0  0  0  0  0  0  0999 V2000
-378744.718884233.8281-1551468.7500 C   0  0  0  0  0  0  0  0  0  0  0  0
-378745.187584233.3281-1551473.1250 C   0  0  0  0  0  0  0  0  0  0  0  0
-378744.968884234.8359-1551472.7500 C   0  0  1  0  0  0  0  0  0  0  0  0
-378746.375084234.5781-1551470.7500 C   0  0  0  0  0  0  0  0  0  0  0  0
-378744.781284232.9375-1551474.6250 C   0  0  0  0  0  0  0  0  0  0  0  0
-378743.406284233.4609-1551475.1250 C   0  0  0  0  0  0  0  0  0  0  0  0
-378745.718884235.5938-1551473.8750 C   0  0  0  0  0  0  0  0  0  0  0  0
-378747.250084236.1875-1551475.5000 C   0  0  0  0  0  0  0  0  0  0  0  0
-378743.406284239.2188-1551481.1250 C   0  0  0  0  0  0  0  0  0  0  0  0
-378745.656284237.4219-1551477.1250 C   0  0  0  0  0  0  0  0  0  0  0  0
-378743.656284234.4375-1551464.0000 Cl  0  0  0  0  0  0  0  0  0  0  0  0
-378743.812584236.9844-1551467.2500 C   0  0  0  0  0  0  0  0  0  0  0  0
-378743.562584236.4531-1551466.0000 C   0  0  0  0  0  0  0  0  0  0  0  0
-378743.781284235.0781-1551465.5000 C   0  0  0  0  0  0  0  0  0  0  0  0
-378744.156284234.2188-1551466.3750 C   0  0  0  0  0  0  0  0  0  0  0  0
-378744.375084234.7656-1551467.7500 C   0  0  0  0  0  0  0  0  0  0  0  0
-378744.093884236.1641-1551468.3750 C   0  0  0  0  0  0  0  0  0  0  0  0
-378744.500084236.7891-1551469.7500 N   0  0  0  0  0  0  0  0  0  0  0  0
-378743.718884237.5312-1551470.3750 C   0  0  0  0  0  0  0  0  0  0  0  0
-378744.437584237.9375-1551471.5000 N   0  0  0  0  0  0  0  0  0  0  0  0
-378745.656284237.3672-1551471.2500 N   0  0  0  0  0  0  0  0  0  0  0  0
-378745.531284236.6250-1551470.3750 N   0  0  0  0  0  0  0  0  0  0  0  0
-378745.968884233.8594-1551469.3750 C   0  0  0  0  0  0  0  0  0  0  0  0
-378747.468884234.5312-1551471.2500 O   0  0  0  0  0  0  0  0  0  0  0  0
-378745.343884235.2266-1551471.3750 N   0  0  0  0  0  0  0  0  0  0  0  0
-378747.062584235.4688-1551474.2500 N   0  0  0  0  0  0  0  0  0  0  0  0
-378746.093884236.7266-1551475.8750 C   0  0  0  0  0  0  0  0  0  0  0  0
-378745.125084236.3594-1551474.7500 N   0  0  0  0  0  0  0  0  0  0  0  0
-378746.406284238.5000-1551477.6250 C   0  0  0  0  0  0  0  0  0  0  0  0
-378745.937584239.2500-1551478.5000 C   0  0  0  0  0  0  0  0  0  0  0  0
-378744.750084238.9375-1551479.1250 C   0  0  0  0  0  0  0  0  0  0  0  0
-378744.093884237.8203-1551478.7500 C   0  0  0  0  0  0  0  0  0  0  0  0
-378744.468884237.0469-1551477.6250 C   0  0  0  0  0  0  0  0  0  0  0  0
-378744.312584239.6406-1551480.2500 N   0  0  0  0  0  0  0  0  0  0  0  0
-378742.375084238.6016-1551481.1250 O   0  0  0  0  0  0  0  0  0  0  0  0
-378743.781284239.5938-1551482.3750 O   0  0  0  0  0  0  0  0  0  0  0  0
-378745.125084239.1797-1551482.8750 C   0  0  0  0  0  0  0  0  0  0  0  0
-378743.281284233.5625-1551476.6250 C   0  0  0  0  0  0  0  0  0  0  0  0
-378744.187584234.5547-1551477.3750 C   0  0  1  0  0  0  0  0  0  0  0  0
-378743.812584235.9297-1551477.2500 N   0  0  0  0  0  0  0  0  0  0  0  0
-378744.281284234.2891-1551478.7500 C   0  0  0  0  0  0  0  0  0  0  0  0
-378744.781284235.0469-1551479.5000 O   0  0  0  0  0  0  0  0  0  0  0  0
-378743.781284233.1250-1551479.2500 O   0  0  0  0  0  0  0  0  0  0  0  0
-378744.593884232.0547-1551479.6250 C   0  0  0  0  0  0  0  0  0  0  0  0
  1 16  1  0
  1 23  2  0
  2  3  1  6
  5  2  1  6
  3  7  1  0
  3 25  1  1
  4 23  1  0
  4 24  2  0
  4 25  1  0
  6  5  1  6
  6 38  1  0
  7 26  2  0
  7 28  1  0
  8 26  1  0
  8 27  2  0
  9 34  1  0
  9 35  2  0
  9 36  1  0
 10 27  1  0
 10 29  1  0
 10 33  2  0
 11 14  1  0
 12 13  2  0
 12 17  1  0
 13 14  1  0
 14 15  2  0
 15 16  1  0
 16 17  2  0
 17 18  1  0
 18 19  1  0
 18 22  1  0
 19 20  2  0
 20 21  1  0
 21 22  2  0
 27 28  1  0
 29 30  2  0
 30 31  1  0
 31 32  2  0
 31 34  1  0
 32 33  1  0
 33 40  1  0
 37 36  1  6
 38 39  1  1
 39 40  1  0
 39 41  1  6
 41 42  2  0
 41 43  1  0
 44 43  1  6
M  END
$$$$
