
     RDKit          3D

 44 48  0  0  0  0  0  0  0  0999 V2000
  -97.1769  266.6352 -179.4079 C   0  0  0  0  0  0  0  0  0  0  0  0
  -98.4251  270.7955 -181.5928 C   0  0  0  0  0  0  0  0  0  0  0  0
  -97.7320  269.9079 -182.6373 C   0  0  1  0  0  0  0  0  0  0  0  0
  -96.7726  268.7678 -180.7320 C   0  0  0  0  0  0  0  0  0  0  0  0
  -99.4452  271.8162 -182.2339 C   0  0  0  0  0  0  0  0  0  0  0  0
 -100.4983  271.2174 -183.2189 C   0  0  0  0  0  0  0  0  0  0  0  0
  -97.1609  270.7736 -183.7215 C   0  0  0  0  0  0  0  0  0  0  0  0
  -96.1981  272.3749 -184.7558 C   0  0  0  0  0  0  0  0  0  0  0  0
 -100.0988  272.8296 -191.3799 C   0  0  0  0  0  0  0  0  0  0  0  0
  -97.5124  272.1509 -187.0002 C   0  0  0  0  0  0  0  0  0  0  0  0
  -92.1906  266.9452 -180.6762 Cl  0  0  0  0  0  0  0  0  0  0  0  0
  -94.0909  265.8602 -177.3418 C   0  0  0  0  0  0  0  0  0  0  0  0
  -93.0923  266.1817 -178.2512 C   0  0  0  0  0  0  0  0  0  0  0  0
  -93.4427  266.6063 -179.5179 C   0  0  0  0  0  0  0  0  0  0  0  0
  -94.7644  266.7213 -179.9030 C   0  0  0  0  0  0  0  0  0  0  0  0
  -95.7839  266.3884 -178.9983 C   0  0  0  0  0  0  0  0  0  0  0  0
  -95.4312  265.9491 -177.7108 C   0  0  0  0  0  0  0  0  0  0  0  0
  -96.4387  265.5947 -176.7614 N   0  0  0  0  0  0  0  0  0  0  0  0
  -97.4628  264.7398 -176.8234 C   0  0  0  0  0  0  0  0  0  0  0  0
  -98.2083  264.8701 -175.7624 N   0  0  0  0  0  0  0  0  0  0  0  0
  -97.6175  265.8353 -175.0152 N   0  0  0  0  0  0  0  0  0  0  0  0
  -96.5467  266.2780 -175.5988 N   0  0  0  0  0  0  0  0  0  0  0  0
  -97.5624  267.6242 -180.2195 C   0  0  0  0  0  0  0  0  0  0  0  0
  -96.1863  269.5533 -179.9753 O   0  0  0  0  0  0  0  0  0  0  0  0
  -96.7821  268.9505 -182.0695 N   0  0  0  0  0  0  0  0  0  0  0  0
  -96.2652  271.7288 -183.5474 N   0  0  0  0  0  0  0  0  0  0  0  0
  -97.0579  271.7882 -185.6576 C   0  0  0  0  0  0  0  0  0  0  0  0
  -97.6359  270.7523 -184.9779 N   0  0  0  0  0  0  0  0  0  0  0  0
  -96.5746  272.4686 -187.9869 C   0  0  0  0  0  0  0  0  0  0  0  0
  -96.9684  272.6947 -189.2922 C   0  0  0  0  0  0  0  0  0  0  0  0
  -98.3142  272.5930 -189.6464 C   0  0  0  0  0  0  0  0  0  0  0  0
  -99.2592  272.3012 -188.6595 C   0  0  0  0  0  0  0  0  0  0  0  0
  -98.8790  272.0925 -187.3363 C   0  0  0  0  0  0  0  0  0  0  0  0
  -98.7981  272.8210 -190.9630 N   0  0  0  0  0  0  0  0  0  0  0  0
 -100.6281  272.0118 -192.1054 O   0  0  0  0  0  0  0  0  0  0  0  0
 -100.7297  273.9110 -190.8799 O   0  0  0  0  0  0  0  0  0  0  0  0
 -100.1718  274.4565 -189.6550 C   0  0  0  0  0  0  0  0  0  0  0  0
 -101.1285  272.2045 -184.2168 C   0  0  0  0  0  0  0  0  0  0  0  0
 -100.1968  272.8139 -185.2785 C   0  0  1  0  0  0  0  0  0  0  0  0
  -99.8217  271.8541 -186.3072 N   0  0  0  0  0  0  0  0  0  0  0  0
 -100.8010  274.0286 -185.9657 C   0  0  0  0  0  0  0  0  0  0  0  0
 -101.4686  274.8554 -185.4102 O   0  0  0  0  0  0  0  0  0  0  0  0
 -100.5489  274.0215 -187.2702 O   0  0  0  0  0  0  0  0  0  0  0  0
 -101.6404  274.3753 -188.1635 C   0  0  0  0  0  0  0  0  0  0  0  0
  1 16  1  0
  1 23  2  0
  2  3  1  6
  5  2  1  6
  3  7  1  0
  3 25  1  1
  4 23  1  0
  4 24  2  0
  4 25  1  0
  6  5  1  6
  6 38  1  0
  7 26  2  0
  7 28  1  0
  8 26  1  0
  8 27  2  0
  9 34  1  0
  9 35  2  0
  9 36  1  0
 10 27  1  0
 10 29  1  0
 10 33  2  0
 11 14  1  0
 12 13  2  0
 12 17  1  0
 13 14  1  0
 14 15  2  0
 15 16  1  0
 16 17  2  0
 17 18  1  0
 18 19  1  0
 18 22  1  0
 19 20  2  0
 20 21  1  0
 21 22  2  0
 27 28  1  0
 29 30  2  0
 30 31  1  0
 31 32  2  0
 31 34  1  0
 32 33  1  0
 33 40  1  0
 37 36  1  6
 38 39  1  1
 39 40  1  0
 39 41  1  6
 41 42  2  0
 41 43  1  0
 44 43  1  6
M  END
$$$$
