
     RDKit          3D

 44 48  0  0  0  0  0  0  0  0999 V2000
   11.0742   46.8516   44.3454 C   0  0  0  0  0  0  0  0  0  0  0  0
   10.2724   49.6163   43.9891 C   0  0  0  0  0  0  0  0  0  0  0  0
    9.6236   49.6893   45.3795 C   0  0  1  0  0  0  0  0  0  0  0  0
   10.0524   47.6140   46.5454 C   0  0  0  0  0  0  0  0  0  0  0  0
    9.4879   50.4490   42.9007 C   0  0  0  0  0  0  0  0  0  0  0  0
    9.1578   51.9306   43.2663 C   0  0  0  0  0  0  0  0  0  0  0  0
    8.1648   49.3582   45.2624 C   0  0  0  0  0  0  0  0  0  0  0  0
    6.3220   48.4464   44.6848 C   0  0  0  0  0  0  0  0  0  0  0  0
    0.5183   53.2849   44.2027 C   0  0  0  0  0  0  0  0  0  0  0  0
    4.7986   50.5367   45.0382 C   0  0  0  0  0  0  0  0  0  0  0  0
    9.9551   51.6003   42.6824 Cl  0  0  0  0  0  0  0  0  0  0  0  0
   11.4834   48.3781   40.8967 C   0  0  0  0  0  0  0  0  0  0  0  0
   11.0342   49.6694   41.1382 C   0  0  0  0  0  0  0  0  0  0  0  0
   10.5786   50.0017   42.3992 C   0  0  0  0  0  0  0  0  0  0  0  0
   10.5604   49.0804   43.4283 C   0  0  0  0  0  0  0  0  0  0  0  0
   11.0003   47.7686   43.1953 C   0  0  0  0  0  0  0  0  0  0  0  0
   11.4579   47.4246   41.9118 C   0  0  0  0  0  0  0  0  0  0  0  0
   11.9089   46.0982   41.6313 N   0  0  0  0  0  0  0  0  0  0  0  0
   13.1201   45.5374   41.6811 C   0  0  0  0  0  0  0  0  0  0  0  0
   13.0680   44.3346   41.1826 N   0  0  0  0  0  0  0  0  0  0  0  0
   11.7753   44.1438   40.8193 N   0  0  0  0  0  0  0  0  0  0  0  0
   11.0619   45.1935   41.0885 N   0  0  0  0  0  0  0  0  0  0  0  0
   10.1634   46.7875   45.3210 C   0  0  0  0  0  0  0  0  0  0  0  0
    9.6637   47.1436   47.6227 O   0  0  0  0  0  0  0  0  0  0  0  0
   10.3322   48.9275   46.4084 N   0  0  0  0  0  0  0  0  0  0  0  0
    7.6712   48.2246   44.7974 N   0  0  0  0  0  0  0  0  0  0  0  0
    6.0136   49.7237   45.0974 C   0  0  0  0  0  0  0  0  0  0  0  0
    7.2045   50.2704   45.4871 N   0  0  0  0  0  0  0  0  0  0  0  0
    3.5907   50.0128   45.5078 C   0  0  0  0  0  0  0  0  0  0  0  0
    2.4565   50.7994   45.5772 C   0  0  0  0  0  0  0  0  0  0  0  0
    2.5074   52.1392   45.1908 C   0  0  0  0  0  0  0  0  0  0  0  0
    3.7053   52.6616   44.6962 C   0  0  0  0  0  0  0  0  0  0  0  0
    4.8500   51.8746   44.6004 C   0  0  0  0  0  0  0  0  0  0  0  0
    1.3832   53.0080   45.2229 N   0  0  0  0  0  0  0  0  0  0  0  0
    0.2307   52.5470   43.2819 O   0  0  0  0  0  0  0  0  0  0  0  0
    0.0278   54.5323   44.3480 O   0  0  0  0  0  0  0  0  0  0  0  0
   -1.2609   54.7800   43.7259 C   0  0  0  0  0  0  0  0  0  0  0  0
    7.9930   52.5741   42.4942 C   0  0  0  0  0  0  0  0  0  0  0  0
    6.5884   51.9974   42.7419 C   0  0  1  0  0  0  0  0  0  0  0  0
    6.0591   52.3623   44.0483 N   0  0  0  0  0  0  0  0  0  0  0  0
    5.5800   52.4282   41.6882 C   0  0  0  0  0  0  0  0  0  0  0  0
    5.6890   52.1984   40.5163 O   0  0  0  0  0  0  0  0  0  0  0  0
    4.5982   53.1460   42.2232 O   0  0  0  0  0  0  0  0  0  0  0  0
    4.6579   54.5892   42.0553 C   0  0  0  0  0  0  0  0  0  0  0  0
  1 16  1  0
  1 23  2  0
  2  3  1  6
  5  2  1  6
  3  7  1  0
  3 25  1  1
  4 23  1  0
  4 24  2  0
  4 25  1  0
  6  5  1  6
  6 38  1  0
  7 26  2  0
  7 28  1  0
  8 26  1  0
  8 27  2  0
  9 34  1  0
  9 35  2  0
  9 36  1  0
 10 27  1  0
 10 29  1  0
 10 33  2  0
 11 14  1  0
 12 13  2  0
 12 17  1  0
 13 14  1  0
 14 15  2  0
 15 16  1  0
 16 17  2  0
 17 18  1  0
 18 19  1  0
 18 22  1  0
 19 20  2  0
 20 21  1  0
 21 22  2  0
 27 28  1  0
 29 30  2  0
 30 31  1  0
 31 32  2  0
 31 34  1  0
 32 33  1  0
 33 40  1  0
 37 36  1  6
 38 39  1  1
 39 40  1  0
 39 41  1  6
 41 42  2  0
 41 43  1  0
 44 43  1  6
M  END
$$$$
