
     RDKit          3D

 44 48  0  0  0  0  0  0  0  0999 V2000
    3.7749   98.1222   50.1604 C   0  0  0  0  0  0  0  0  0  0  0  0
    8.1761   95.2310   48.8500 C   0  0  0  0  0  0  0  0  0  0  0  0
    7.3631   96.2856   49.6156 C   0  0  1  0  0  0  0  0  0  0  0  0
    5.7840   97.8296   48.6297 C   0  0  0  0  0  0  0  0  0  0  0  0
    8.4707   93.9395   49.7094 C   0  0  0  0  0  0  0  0  0  0  0  0
    7.2413   93.2742   50.4050 C   0  0  0  0  0  0  0  0  0  0  0  0
    8.0150   96.5455   50.9419 C   0  0  0  0  0  0  0  0  0  0  0  0
    9.4750   96.8740   52.4654 C   0  0  0  0  0  0  0  0  0  0  0  0
    7.3277   93.5687   58.9718 C   0  0  0  0  0  0  0  0  0  0  0  0
    8.0912   95.9087   54.4575 C   0  0  0  0  0  0  0  0  0  0  0  0
    3.8919  100.9861   54.4442 Cl  0  0  0  0  0  0  0  0  0  0  0  0
    1.0444  100.2138   51.7606 C   0  0  0  0  0  0  0  0  0  0  0  0
    1.7335  100.7402   52.8449 C   0  0  0  0  0  0  0  0  0  0  0  0
    3.0506  100.3776   53.0492 C   0  0  0  0  0  0  0  0  0  0  0  0
    3.7011   99.5043   52.1992 C   0  0  0  0  0  0  0  0  0  0  0  0
    3.0133   98.9555   51.1063 C   0  0  0  0  0  0  0  0  0  0  0  0
    1.6710   99.3163   50.8991 C   0  0  0  0  0  0  0  0  0  0  0  0
    0.9331   98.7755   49.8016 N   0  0  0  0  0  0  0  0  0  0  0  0
    0.2724   97.6248   49.6503 C   0  0  0  0  0  0  0  0  0  0  0  0
   -0.1152   97.5003   48.4123 N   0  0  0  0  0  0  0  0  0  0  0  0
    0.3157   98.6195   47.7789 N   0  0  0  0  0  0  0  0  0  0  0  0
    0.9433   99.4016   48.6023 N   0  0  0  0  0  0  0  0  0  0  0  0
    5.0409   98.3516   49.8003 C   0  0  0  0  0  0  0  0  0  0  0  0
    5.2393   97.6506   47.5322 O   0  0  0  0  0  0  0  0  0  0  0  0
    7.0740   97.4929   48.8410 N   0  0  0  0  0  0  0  0  0  0  0  0
    9.2493   96.9824   51.1165 N   0  0  0  0  0  0  0  0  0  0  0  0
    8.3569   96.3759   53.0966 C   0  0  0  0  0  0  0  0  0  0  0  0
    7.4332   96.2037   52.1035 N   0  0  0  0  0  0  0  0  0  0  0  0
    8.4398   96.7128   55.5465 C   0  0  0  0  0  0  0  0  0  0  0  0
    8.0902   96.3522   56.8340 C   0  0  0  0  0  0  0  0  0  0  0  0
    7.3672   95.1809   57.0626 C   0  0  0  0  0  0  0  0  0  0  0  0
    7.0384   94.3600   55.9807 C   0  0  0  0  0  0  0  0  0  0  0  0
    7.4031   94.7001   54.6806 C   0  0  0  0  0  0  0  0  0  0  0  0
    6.9806   94.7376   58.3563 N   0  0  0  0  0  0  0  0  0  0  0  0
    6.8025   93.0896   59.9566 O   0  0  0  0  0  0  0  0  0  0  0  0
    8.3761   93.0119   58.3327 O   0  0  0  0  0  0  0  0  0  0  0  0
    9.6773   93.5762   58.6448 C   0  0  0  0  0  0  0  0  0  0  0  0
    7.5528   92.3783   51.6162 C   0  0  0  0  0  0  0  0  0  0  0  0
    8.1300   93.0679   52.8644 C   0  0  1  0  0  0  0  0  0  0  0  0
    7.1344   93.8576   53.5749 N   0  0  0  0  0  0  0  0  0  0  0  0
    8.7429   92.0854   53.8504 C   0  0  0  0  0  0  0  0  0  0  0  0
    9.8285   92.2130   54.3434 O   0  0  0  0  0  0  0  0  0  0  0  0
    7.9498   91.0373   54.0449 O   0  0  0  0  0  0  0  0  0  0  0  0
    8.1759   90.2414   55.2407 C   0  0  0  0  0  0  0  0  0  0  0  0
  1 16  1  0
  1 23  2  0
  2  3  1  6
  5  2  1  6
  3  7  1  0
  3 25  1  6
  4 23  1  0
  4 24  2  0
  4 25  1  0
  6  5  1  6
  6 38  1  0
  7 26  2  0
  7 28  1  0
  8 26  1  0
  8 27  2  0
  9 34  1  0
  9 35  2  0
  9 36  1  0
 10 27  1  0
 10 29  1  0
 10 33  2  0
 11 14  1  0
 12 13  2  0
 12 17  1  0
 13 14  1  0
 14 15  2  0
 15 16  1  0
 16 17  2  0
 17 18  1  0
 18 19  1  0
 18 22  1  0
 19 20  2  0
 20 21  1  0
 21 22  2  0
 27 28  1  0
 29 30  2  0
 30 31  1  0
 31 32  2  0
 31 34  1  0
 32 33  1  0
 33 40  1  0
 37 36  1  6
 38 39  1  1
 39 40  1  0
 39 41  1  1
 41 42  2  0
 41 43  1  0
 44 43  1  6
M  END
$$$$
