
     RDKit          3D

 44 48  0  0  0  0  0  0  0  0999 V2000
-40022.9688 -735.0912-13974.6738 C   0  0  0  0  0  0  0  0  0  0  0  0
-40024.0195 -735.1854-13973.7432 C   0  0  0  0  0  0  0  0  0  0  0  0
-40024.1523 -736.3197-13972.7139 C   0  0  1  0  0  0  0  0  0  0  0  0
-40021.9062 -736.9710-13973.3340 C   0  0  0  0  0  0  0  0  0  0  0  0
-40025.4102 -734.4836-13974.0527 C   0  0  0  0  0  0  0  0  0  0  0  0
-40026.2305 -734.0044-13972.8193 C   0  0  0  0  0  0  0  0  0  0  0  0
-40025.2539 -737.2491-13973.1338 C   0  0  0  0  0  0  0  0  0  0  0  0
-40026.5508 -738.4610-13974.3125 C   0  0  0  0  0  0  0  0  0  0  0  0
-40033.6992 -738.2071-13971.7197 C   0  0  0  0  0  0  0  0  0  0  0  0
-40028.6602 -738.2732-13972.7715 C   0  0  0  0  0  0  0  0  0  0  0  0
-40024.1289 -730.0767-13974.3906 Cl  0  0  0  0  0  0  0  0  0  0  0  0
-40024.7969 -733.1664-13971.9609 C   0  0  0  0  0  0  0  0  0  0  0  0
-40024.7930 -731.8934-13972.5117 C   0  0  0  0  0  0  0  0  0  0  0  0
-40024.1875 -731.6846-13973.7344 C   0  0  0  0  0  0  0  0  0  0  0  0
-40023.5586 -732.7126-13974.4160 C   0  0  0  0  0  0  0  0  0  0  0  0
-40023.5430 -734.0017-13973.8623 C   0  0  0  0  0  0  0  0  0  0  0  0
-40024.1562 -734.2167-13972.6172 C   0  0  0  0  0  0  0  0  0  0  0  0
-40024.1641 -735.5132-13972.0176 N   0  0  0  0  0  0  0  0  0  0  0  0
-40025.1367 -736.2501-13971.4766 C   0  0  0  0  0  0  0  0  0  0  0  0
-40024.6211 -737.3060-13970.9082 N   0  0  0  0  0  0  0  0  0  0  0  0
-40023.2773 -737.2204-13971.1152 N   0  0  0  0  0  0  0  0  0  0  0  0
-40022.9922 -736.1506-13971.7871 N   0  0  0  0  0  0  0  0  0  0  0  0
-40021.9258 -735.8505-13974.3027 C   0  0  0  0  0  0  0  0  0  0  0  0
-40021.0664 -737.8795-13973.4062 O   0  0  0  0  0  0  0  0  0  0  0  0
-40022.8906 -736.9870-13972.4072 N   0  0  0  0  0  0  0  0  0  0  0  0
-40025.3008 -737.9169-13974.2734 N   0  0  0  0  0  0  0  0  0  0  0  0
-40027.2617 -738.1199-13973.1768 C   0  0  0  0  0  0  0  0  0  0  0  0
-40026.3906 -737.3705-13972.4316 N   0  0  0  0  0  0  0  0  0  0  0  0
-40029.2695 -739.5234-13972.8652 C   0  0  0  0  0  0  0  0  0  0  0  0
-40030.5508 -739.7242-13972.3770 C   0  0  0  0  0  0  0  0  0  0  0  0
-40031.2383 -738.6766-13971.7656 C   0  0  0  0  0  0  0  0  0  0  0  0
-40030.6406 -737.4167-13971.6904 C   0  0  0  0  0  0  0  0  0  0  0  0
-40029.3594 -737.1952-13972.1992 C   0  0  0  0  0  0  0  0  0  0  0  0
-40032.5625 -738.8004-13971.2490 N   0  0  0  0  0  0  0  0  0  0  0  0
-40034.4609 -738.6695-13972.5381 O   0  0  0  0  0  0  0  0  0  0  0  0
-40033.8516 -736.9932-13971.1504 O   0  0  0  0  0  0  0  0  0  0  0  0
-40035.2227 -736.5572-13970.9443 C   0  0  0  0  0  0  0  0  0  0  0  0
-40027.7383 -733.8103-13973.0518 C   0  0  0  0  0  0  0  0  0  0  0  0
-40028.5703 -735.0707-13973.3604 C   0  0  1  0  0  0  0  0  0  0  0  0
-40028.7539 -735.9158-13972.1904 N   0  0  0  0  0  0  0  0  0  0  0  0
-40029.9453 -734.7494-13973.9326 C   0  0  0  0  0  0  0  0  0  0  0  0
-40030.9766 -734.9425-13973.3535 O   0  0  0  0  0  0  0  0  0  0  0  0
-40029.8594 -734.2889-13975.1738 O   0  0  0  0  0  0  0  0  0  0  0  0
-40030.2500 -732.9102-13975.4033 C   0  0  0  0  0  0  0  0  0  0  0  0
  1 16  1  0
  1 23  2  0
  2  3  1  6
  5  2  1  6
  3  7  1  0
  3 25  1  6
  4 23  1  0
  4 24  2  0
  4 25  1  0
  6  5  1  6
  6 38  1  0
  7 26  2  0
  7 28  1  0
  8 26  1  0
  8 27  2  0
  9 34  1  0
  9 35  2  0
  9 36  1  0
 10 27  1  0
 10 29  1  0
 10 33  2  0
 11 14  1  0
 12 13  2  0
 12 17  1  0
 13 14  1  0
 14 15  2  0
 15 16  1  0
 16 17  2  0
 17 18  1  0
 18 19  1  0
 18 22  1  0
 19 20  2  0
 20 21  1  0
 21 22  2  0
 27 28  1  0
 29 30  2  0
 30 31  1  0
 31 32  2  0
 31 34  1  0
 32 33  1  0
 33 40  1  0
 37 36  1  6
 38 39  1  1
 39 40  1  0
 39 41  1  1
 41 42  2  0
 41 43  1  0
 44 43  1  6
M  END
$$$$
