
     RDKit          3D

  9 10  0  0  0  0  0  0  0  0999 V2000
 -911.4868-1374.6738  156.0221 C   0  0  0  0  0  0  0  0  0  0  0  0
 -910.6520-1374.4087  157.1202 C   0  0  0  0  0  0  0  0  0  0  0  0
 -911.2226-1374.3252  158.3920 C   0  0  0  0  0  0  0  0  0  0  0  0
 -912.5880-1374.4996  158.5466 C   0  0  0  0  0  0  0  0  0  0  0  0
 -913.3985-1374.7581  157.4479 C   0  0  0  0  0  0  0  0  0  0  0  0
 -912.8586-1374.8495  156.1747 C   0  0  0  0  0  0  0  0  0  0  0  0
 -910.6885-1374.7003  154.9259 N   0  0  0  0  0  0  0  0  0  0  0  0
 -909.3541-1374.2916  156.5564 C   0  0  0  0  0  0  0  0  0  0  0  0
 -909.3821-1374.4655  155.2480 N   0  0  0  0  0  0  0  0  0  0  0  0
  1  2  1  0
  1  6  2  0
  1  7  1  0
  2  3  2  0
  2  8  1  0
  3  4  1  0
  4  5  2  0
  5  6  1  0
  7  9  1  0
  8  9  2  0
M  END
$$$$
