
     RDKit          3D

  9 10  0  0  0  0  0  0  0  0999 V2000
  327.2870 3351.7993  343.1368 C   0  0  0  0  0  0  0  0  0  0  0  0
  327.9961 3350.8279  342.4114 C   0  0  0  0  0  0  0  0  0  0  0  0
  329.0894 3351.2307  341.6415 C   0  0  0  0  0  0  0  0  0  0  0  0
  329.4497 3352.5676  341.6047 C   0  0  0  0  0  0  0  0  0  0  0  0
  328.7343 3353.5156  342.3270 C   0  0  0  0  0  0  0  0  0  0  0  0
  327.6466 3353.1423  343.1010 C   0  0  0  0  0  0  0  0  0  0  0  0
  326.2896 3351.1472  343.7850 N   0  0  0  0  0  0  0  0  0  0  0  0
  327.3254 3349.6111  342.7023 C   0  0  0  0  0  0  0  0  0  0  0  0
  326.3086 3349.8079  343.5212 N   0  0  0  0  0  0  0  0  0  0  0  0
  1  2  1  0
  1  6  2  0
  1  7  1  0
  2  3  2  0
  2  8  1  0
  3  4  1  0
  4  5  2  0
  5  6  1  0
  7  9  1  0
  8  9  2  0
M  END
$$$$
