
     RDKit          3D

  9 10  0  0  0  0  0  0  0  0999 V2000
 3108.6956-1378.5292-1067.3738 C   0  0  0  0  0  0  0  0  0  0  0  0
 3107.4941-1377.9589-1067.8264 C   0  0  0  0  0  0  0  0  0  0  0  0
 3106.9443-1378.4156-1069.0256 C   0  0  0  0  0  0  0  0  0  0  0  0
 3107.5884-1379.4102-1069.7435 C   0  0  0  0  0  0  0  0  0  0  0  0
 3108.7778-1379.9603-1069.2823 C   0  0  0  0  0  0  0  0  0  0  0  0
 3109.3447-1379.5281-1068.0928 C   0  0  0  0  0  0  0  0  0  0  0  0
 3109.0024-1377.9120-1066.2061 N   0  0  0  0  0  0  0  0  0  0  0  0
 3107.1675-1376.9949-1066.8364 C   0  0  0  0  0  0  0  0  0  0  0  0
 3108.0696-1376.9707-1065.8734 N   0  0  0  0  0  0  0  0  0  0  0  0
  1  2  1  0
  1  6  2  0
  1  7  1  0
  2  3  2  0
  2  8  1  0
  3  4  1  0
  4  5  2  0
  5  6  1  0
  7  9  1  0
  8  9  2  0
M  END
$$$$
