
     RDKit          3D

  9 10  0  0  0  0  0  0  0  0999 V2000
 6046.2256 2780.7202 2271.8445 C   0  0  0  0  0  0  0  0  0  0  0  0
 6045.3535 2779.9963 2271.0149 C   0  0  0  0  0  0  0  0  0  0  0  0
 6045.4199 2780.1963 2269.6348 C   0  0  0  0  0  0  0  0  0  0  0  0
 6046.3296 2781.0996 2269.1118 C   0  0  0  0  0  0  0  0  0  0  0  0
 6047.1826 2781.8096 2269.9480 C   0  0  0  0  0  0  0  0  0  0  0  0
 6047.1426 2781.6279 2271.3220 C   0  0  0  0  0  0  0  0  0  0  0  0
 6045.9541 2780.3428 2273.1172 N   0  0  0  0  0  0  0  0  0  0  0  0
 6044.5918 2779.2029 2271.9128 C   0  0  0  0  0  0  0  0  0  0  0  0
 6044.9531 2779.4141 2273.1646 N   0  0  0  0  0  0  0  0  0  0  0  0
  1  2  1  0
  1  6  2  0
  1  7  1  0
  2  3  2  0
  2  8  1  0
  3  4  1  0
  4  5  2  0
  5  6  1  0
  7  9  1  0
  8  9  2  0
M  END
$$$$
