
     RDKit          3D

  9 10  0  0  0  0  0  0  0  0999 V2000
 4809.5825-1692.4780 1108.5154 C   0  0  0  0  0  0  0  0  0  0  0  0
 4810.6533-1693.3743 1108.6610 C   0  0  0  0  0  0  0  0  0  0  0  0
 4810.3818-1694.7437 1108.6980 C   0  0  0  0  0  0  0  0  0  0  0  0
 4809.0757-1695.1892 1108.5947 C   0  0  0  0  0  0  0  0  0  0  0  0
 4808.0264-1694.2870 1108.4545 C   0  0  0  0  0  0  0  0  0  0  0  0
 4808.2681-1692.9230 1108.4117 C   0  0  0  0  0  0  0  0  0  0  0  0
 4810.1162-1691.2311 1108.5112 N   0  0  0  0  0  0  0  0  0  0  0  0
 4811.8013-1692.5422 1108.7374 C   0  0  0  0  0  0  0  0  0  0  0  0
 4811.4756-1691.2662 1108.6481 N   0  0  0  0  0  0  0  0  0  0  0  0
  1  2  1  0
  1  6  2  0
  1  7  1  0
  2  3  2  0
  2  8  1  0
  3  4  1  0
  4  5  2  0
  5  6  1  0
  7  9  1  0
  8  9  2  0
M  END
$$$$
