
     RDKit          3D

  9 10  0  0  0  0  0  0  0  0999 V2000
-1283.8524  707.4496  425.0698 C   0  0  0  0  0  0  0  0  0  0  0  0
-1283.0492  708.2427  425.9061 C   0  0  0  0  0  0  0  0  0  0  0  0
-1283.6704  709.1180  426.7993 C   0  0  0  0  0  0  0  0  0  0  0  0
-1285.0531  709.1909  426.8427 C   0  0  0  0  0  0  0  0  0  0  0  0
-1285.8312  708.4006  426.0052 C   0  0  0  0  0  0  0  0  0  0  0  0
-1285.2412  707.5209  425.1111 C   0  0  0  0  0  0  0  0  0  0  0  0
-1283.0073  706.7052  424.3141 N   0  0  0  0  0  0  0  0  0  0  0  0
-1281.7192  707.8865  425.5597 C   0  0  0  0  0  0  0  0  0  0  0  0
-1281.7006  706.9697  424.6098 N   0  0  0  0  0  0  0  0  0  0  0  0
  1  2  1  0
  1  6  2  0
  1  7  1  0
  2  3  2  0
  2  8  1  0
  3  4  1  0
  4  5  2  0
  5  6  1  0
  7  9  1  0
  8  9  2  0
M  END
$$$$
