
     RDKit          3D

  9 10  0  0  0  0  0  0  0  0999 V2000
-1409.0582 1331.2461  833.3852 C   0  0  0  0  0  0  0  0  0  0  0  0
-1408.1737 1332.3032  833.1143 C   0  0  0  0  0  0  0  0  0  0  0  0
-1406.8280 1332.1567  833.4567 C   0  0  0  0  0  0  0  0  0  0  0  0
-1406.3933 1330.9845  834.0538 C   0  0  0  0  0  0  0  0  0  0  0  0
-1407.2836 1329.9503  834.3169 C   0  0  0  0  0  0  0  0  0  0  0  0
-1408.6239 1330.0682  833.9850 C   0  0  0  0  0  0  0  0  0  0  0  0
-1410.2821 1331.6465  832.9606 N   0  0  0  0  0  0  0  0  0  0  0  0
-1408.9894 1333.3018  832.5195 C   0  0  0  0  0  0  0  0  0  0  0  0
-1410.2451 1332.9048  832.4307 N   0  0  0  0  0  0  0  0  0  0  0  0
  1  2  1  0
  1  6  2  0
  1  7  1  0
  2  3  2  0
  2  8  1  0
  3  4  1  0
  4  5  2  0
  5  6  1  0
  7  9  1  0
  8  9  2  0
M  END
$$$$
