
     RDKit          3D

  9 10  0  0  0  0  0  0  0  0999 V2000
 2727.9263-2283.2637 1570.0092 C   0  0  0  0  0  0  0  0  0  0  0  0
 2727.7241-2282.9917 1571.3723 C   0  0  0  0  0  0  0  0  0  0  0  0
 2728.7610-2283.2566 1572.2701 C   0  0  0  0  0  0  0  0  0  0  0  0
 2729.9561-2283.7795 1571.8058 C   0  0  0  0  0  0  0  0  0  0  0  0
 2730.1370-2284.0439 1570.4539 C   0  0  0  0  0  0  0  0  0  0  0  0
 2729.1270-2283.7881 1569.5402 C   0  0  0  0  0  0  0  0  0  0  0  0
 2726.7791-2282.9207 1569.3715 N   0  0  0  0  0  0  0  0  0  0  0  0
 2726.4004-2282.4846 1571.4385 C   0  0  0  0  0  0  0  0  0  0  0  0
 2725.8413-2282.4441 1570.2424 N   0  0  0  0  0  0  0  0  0  0  0  0
  1  2  1  0
  1  6  2  0
  1  7  1  0
  2  3  2  0
  2  8  1  0
  3  4  1  0
  4  5  2  0
  5  6  1  0
  7  9  1  0
  8  9  2  0
M  END
$$$$
