
     RDKit          3D

  9 10  0  0  0  0  0  0  0  0999 V2000
 2985.1826  252.2644 -395.2224 C   0  0  0  0  0  0  0  0  0  0  0  0
 2983.9177  252.8618 -395.0925 C   0  0  0  0  0  0  0  0  0  0  0  0
 2983.7371  253.8440 -394.1163 C   0  0  0  0  0  0  0  0  0  0  0  0
 2984.7959  254.2057 -393.2997 C   0  0  0  0  0  0  0  0  0  0  0  0
 2986.0383  253.6014 -393.4404 C   0  0  0  0  0  0  0  0  0  0  0  0
 2986.2476  252.6259 -394.4030 C   0  0  0  0  0  0  0  0  0  0  0  0
 2985.0823  251.3591 -396.2272 N   0  0  0  0  0  0  0  0  0  0  0  0
 2983.1243  252.2277 -396.0847 C   0  0  0  0  0  0  0  0  0  0  0  0
 2983.8237  251.3324 -396.7578 N   0  0  0  0  0  0  0  0  0  0  0  0
  1  2  1  0
  1  6  2  0
  1  7  1  0
  2  3  2  0
  2  8  1  0
  3  4  1  0
  4  5  2  0
  5  6  1  0
  7  9  1  0
  8  9  2  0
M  END
$$$$
