
     RDKit          3D

  9 10  0  0  0  0  0  0  0  0999 V2000
 -160.1526 -466.7039  -31.9229 C   0  0  0  0  0  0  0  0  0  0  0  0
 -161.3337 -467.1670  -32.5258 C   0  0  0  0  0  0  0  0  0  0  0  0
 -161.3945 -468.4968  -32.9483 C   0  0  0  0  0  0  0  0  0  0  0  0
 -160.2995 -469.3262  -32.7702 C   0  0  0  0  0  0  0  0  0  0  0  0
 -159.1382 -468.8493  -32.1746 C   0  0  0  0  0  0  0  0  0  0  0  0
 -159.0512 -467.5350  -31.7432 C   0  0  0  0  0  0  0  0  0  0  0  0
 -160.3603 -465.3995  -31.6152 N   0  0  0  0  0  0  0  0  0  0  0  0
 -162.1945 -466.0379  -32.5286 C   0  0  0  0  0  0  0  0  0  0  0  0
 -161.6089 -464.9872  -31.9850 N   0  0  0  0  0  0  0  0  0  0  0  0
  1  2  1  0
  1  6  2  0
  1  7  1  0
  2  3  2  0
  2  8  1  0
  3  4  1  0
  4  5  2  0
  5  6  1  0
  7  9  1  0
  8  9  2  0
M  END
$$$$
