
     RDKit          3D

  9 10  0  0  0  0  0  0  0  0999 V2000
  -33.3782   65.8802  141.9620 C   0  0  0  0  0  0  0  0  0  0  0  0
  -33.1628   64.5695  141.5053 C   0  0  0  0  0  0  0  0  0  0  0  0
  -33.9960   64.0619  140.5061 C   0  0  0  0  0  0  0  0  0  0  0  0
  -35.0116   64.8503  139.9906 C   0  0  0  0  0  0  0  0  0  0  0  0
  -35.2115   66.1437  140.4573 C   0  0  0  0  0  0  0  0  0  0  0  0
  -34.3978   66.6740  141.4460 C   0  0  0  0  0  0  0  0  0  0  0  0
  -32.4452   66.1157  142.9178 N   0  0  0  0  0  0  0  0  0  0  0  0
  -32.0593   64.1065  142.2694 C   0  0  0  0  0  0  0  0  0  0  0  0
  -31.6361   65.0322  143.1101 N   0  0  0  0  0  0  0  0  0  0  0  0
  1  2  1  0
  1  6  2  0
  1  7  1  0
  2  3  2  0
  2  8  1  0
  3  4  1  0
  4  5  2  0
  5  6  1  0
  7  9  1  0
  8  9  2  0
M  END
$$$$
