
     RDKit          3D

  9 10  0  0  0  0  0  0  0  0999 V2000
 2198.3975  192.6761-1564.9320 C   0  0  0  0  0  0  0  0  0  0  0  0
 2199.4165  192.4854-1563.9844 C   0  0  0  0  0  0  0  0  0  0  0  0
 2200.7297  192.8020-1564.3379 C   0  0  0  0  0  0  0  0  0  0  0  0
 2201.0020  193.2906-1565.6052 C   0  0  0  0  0  0  0  0  0  0  0  0
 2199.9812  193.4691-1566.5309 C   0  0  0  0  0  0  0  0  0  0  0  0
 2198.6689  193.1664-1566.2051 C   0  0  0  0  0  0  0  0  0  0  0  0
 2197.2393  192.2945-1564.3379 N   0  0  0  0  0  0  0  0  0  0  0  0
 2198.7444  191.9771-1562.8409 C   0  0  0  0  0  0  0  0  0  0  0  0
 2197.4473  191.8651-1563.0580 N   0  0  0  0  0  0  0  0  0  0  0  0
  1  2  1  0
  1  6  2  0
  1  7  1  0
  2  3  2  0
  2  8  1  0
  3  4  1  0
  4  5  2  0
  5  6  1  0
  7  9  1  0
  8  9  2  0
M  END
$$$$
