
     RDKit          3D

  9 10  0  0  0  0  0  0  0  0999 V2000
-2786.8171 -349.8652 1283.1123 C   0  0  0  0  0  0  0  0  0  0  0  0
-2786.1907 -348.7003 1283.5850 C   0  0  0  0  0  0  0  0  0  0  0  0
-2784.8047 -348.5850 1283.4576 C   0  0  0  0  0  0  0  0  0  0  0  0
-2784.0798 -349.6123 1282.8757 C   0  0  0  0  0  0  0  0  0  0  0  0
-2784.7168 -350.7586 1282.4171 C   0  0  0  0  0  0  0  0  0  0  0  0
-2786.0911 -350.8984 1282.5286 C   0  0  0  0  0  0  0  0  0  0  0  0
-2788.1431 -349.7191 1283.3588 N   0  0  0  0  0  0  0  0  0  0  0  0
-2787.2524 -347.9137 1284.1034 C   0  0  0  0  0  0  0  0  0  0  0  0
-2788.4143 -348.5262 1283.9661 N   0  0  0  0  0  0  0  0  0  0  0  0
  1  2  1  0
  1  6  2  0
  1  7  1  0
  2  3  2  0
  2  8  1  0
  3  4  1  0
  4  5  2  0
  5  6  1  0
  7  9  1  0
  8  9  2  0
M  END
$$$$
