
     RDKit          3D

  9 10  0  0  0  0  0  0  0  0999 V2000
-2471.6213-1896.0808 1366.3846 C   0  0  0  0  0  0  0  0  0  0  0  0
-2472.8347-1896.7878 1366.4274 C   0  0  0  0  0  0  0  0  0  0  0  0
-2474.0066-1896.1324 1366.0431 C   0  0  0  0  0  0  0  0  0  0  0  0
-2473.9534-1894.8102 1365.6339 C   0  0  0  0  0  0  0  0  0  0  0  0
-2472.7446-1894.1261 1365.6016 C   0  0  0  0  0  0  0  0  0  0  0  0
-2471.5662-1894.7526 1365.9744 C   0  0  0  0  0  0  0  0  0  0  0  0
-2470.6582-1896.9385 1366.8033 N   0  0  0  0  0  0  0  0  0  0  0  0
-2472.4736-1898.0789 1366.8950 C   0  0  0  0  0  0  0  0  0  0  0  0
-2471.1758-1898.1630 1367.1179 N   0  0  0  0  0  0  0  0  0  0  0  0
  1  2  1  0
  1  6  2  0
  1  7  1  0
  2  3  2  0
  2  8  1  0
  3  4  1  0
  4  5  2  0
  5  6  1  0
  7  9  1  0
  8  9  2  0
M  END
$$$$
