
     RDKit          3D

  9 10  0  0  0  0  0  0  0  0999 V2000
 3217.4160 2213.7817  158.0760 C   0  0  0  0  0  0  0  0  0  0  0  0
 3217.0686 2212.4739  157.6994 C   0  0  0  0  0  0  0  0  0  0  0  0
 3217.4185 2212.0283  156.4229 C   0  0  0  0  0  0  0  0  0  0  0  0
 3218.0906 2212.8750  155.5583 C   0  0  0  0  0  0  0  0  0  0  0  0
 3218.4229 2214.1670  155.9474 C   0  0  0  0  0  0  0  0  0  0  0  0
 3218.0916 2214.6353  157.2092 C   0  0  0  0  0  0  0  0  0  0  0  0
 3216.9644 2213.9534  159.3432 N   0  0  0  0  0  0  0  0  0  0  0  0
 3216.4011 2211.9448  158.8359 C   0  0  0  0  0  0  0  0  0  0  0  0
 3216.3420 2212.8313  159.8122 N   0  0  0  0  0  0  0  0  0  0  0  0
  1  2  1  0
  1  6  2  0
  1  7  1  0
  2  3  2  0
  2  8  1  0
  3  4  1  0
  4  5  2  0
  5  6  1  0
  7  9  1  0
  8  9  2  0
M  END
$$$$
