
     RDKit          3D

 16 17  0  0  0  0  0  0  0  0999 V2000
 -232.4196   81.2343   16.0609 N   0  0  0  0  0  0  0  0  0  0  0  0
 -231.0117   81.5062   20.0426 C   0  0  0  0  0  0  0  0  0  0  0  0
 -231.9605   81.5318   21.0591 C   0  0  0  0  0  0  0  0  0  0  0  0
 -231.5813   81.6670   22.3804 C   0  0  0  0  0  0  0  0  0  0  0  0
 -232.0130   80.1962   18.2231 C   0  0  0  0  0  0  0  0  0  0  0  0
 -231.7995   80.0795   16.7348 C   0  0  0  0  0  0  0  0  0  0  0  0
 -231.9730   82.6266   18.0392 C   0  0  0  0  0  0  0  0  0  0  0  0
 -228.5109   81.5031   24.6221 O   0  0  0  0  0  0  0  0  0  0  0  0
 -229.7701   82.1452   24.3639 S   0  0  1  0  0  0  0  0  0  0  0  0
 -230.8787   81.8268   25.2170 O   0  0  0  0  0  0  0  0  0  0  0  0
 -229.5261   83.8809   24.3892 C   0  0  0  0  0  0  0  0  0  0  0  0
 -230.2393   81.7920   22.6958 C   0  0  0  0  0  0  0  0  0  0  0  0
 -229.6607   81.5919   20.3853 C   0  0  0  0  0  0  0  0  0  0  0  0
 -229.2725   81.7323   21.7059 C   0  0  0  0  0  0  0  0  0  0  0  0
 -231.4086   81.4417   18.7011 N   0  0  0  0  0  0  0  0  0  0  0  0
 -231.8418   82.5111   16.5330 C   0  0  0  0  0  0  0  0  0  0  0  0
  1  6  1  6
  1 16  1  0
  2  3  2  0
  2 13  1  0
  2 15  1  0
  3  4  1  0
  4 12  2  0
  6  5  1  1
  5 15  1  1
  7 15  1  6
 16  7  1  1
  8  9  2  0
  9 10  2  0
 11  9  1  6
  9 12  1  6
 12 14  1  0
 13 14  2  0
M  CHG  1   1   1
M  END
$$$$
