
     RDKit          3D

 16 17  0  0  0  0  0  0  0  0999 V2000
  121.0998   75.1220 -325.8239 N   0  0  0  0  0  0  0  0  0  0  0  0
  125.0318   74.5245 -324.3777 C   0  0  0  0  0  0  0  0  0  0  0  0
  125.3362   73.7113 -323.2912 C   0  0  0  0  0  0  0  0  0  0  0  0
  126.6340   73.5960 -322.8329 C   0  0  0  0  0  0  0  0  0  0  0  0
  123.3009   76.0088 -325.2888 C   0  0  0  0  0  0  0  0  0  0  0  0
  121.8158   76.1816 -325.0912 C   0  0  0  0  0  0  0  0  0  0  0  0
  122.9972   73.5968 -325.4698 C   0  0  0  0  0  0  0  0  0  0  0  0
  129.2013   74.9071 -321.4555 O   0  0  0  0  0  0  0  0  0  0  0  0
  129.2683   74.3021 -322.7571 S   0  0  1  0  0  0  0  0  0  0  0  0
  130.1707   74.8663 -323.7191 O   0  0  0  0  0  0  0  0  0  0  0  0
  129.6501   72.6023 -322.5625 C   0  0  0  0  0  0  0  0  0  0  0  0
  127.6434   74.3099 -323.4552 C   0  0  0  0  0  0  0  0  0  0  0  0
  126.0706   75.2037 -325.0173 C   0  0  0  0  0  0  0  0  0  0  0  0
  127.3728   75.0976 -324.5618 C   0  0  0  0  0  0  0  0  0  0  0  0
  123.7040   74.6920 -324.7903 N   0  0  0  0  0  0  0  0  0  0  0  0
  121.4959   73.7766 -325.3547 C   0  0  0  0  0  0  0  0  0  0  0  0
  1  6  1  6
  1 16  1  0
  2  3  2  0
  2 13  1  0
  2 15  1  0
  3  4  1  0
  4 12  2  0
  6  5  1  1
  5 15  1  1
  7 15  1  6
 16  7  1  1
  8  9  2  0
  9 10  2  0
 11  9  1  6
  9 12  1  6
 12 14  1  0
 13 14  2  0
M  CHG  1   1   1
M  END
$$$$
