
     RDKit          3D

 16 17  0  0  0  0  0  0  0  0999 V2000
  198.5820  -27.5851  231.4593 N   0  0  0  0  0  0  0  0  0  0  0  0
  201.5908  -24.7233  232.2755 C   0  0  0  0  0  0  0  0  0  0  0  0
  201.8413  -23.6740  231.3976 C   0  0  0  0  0  0  0  0  0  0  0  0
  202.8222  -22.7404  231.6692 C   0  0  0  0  0  0  0  0  0  0  0  0
  199.9682  -26.3900  233.0618 C   0  0  0  0  0  0  0  0  0  0  0  0
  199.5059  -27.7478  232.5961 C   0  0  0  0  0  0  0  0  0  0  0  0
  199.7739  -25.5417  230.7847 C   0  0  0  0  0  0  0  0  0  0  0  0
  204.4440  -20.4275  233.1686 O   0  0  0  0  0  0  0  0  0  0  0  0
  204.9462  -21.7708  233.0806 S   0  0  1  0  0  0  0  0  0  0  0  0
  205.9368  -22.0581  232.0837 O   0  0  0  0  0  0  0  0  0  0  0  0
  205.5807  -22.2324  234.6481 C   0  0  0  0  0  0  0  0  0  0  0  0
  203.5752  -22.8583  232.8245 C   0  0  0  0  0  0  0  0  0  0  0  0
  202.3333  -24.8005  233.4556 C   0  0  0  0  0  0  0  0  0  0  0  0
  203.3210  -23.8722  233.7332 C   0  0  0  0  0  0  0  0  0  0  0  0
  200.6447  -25.7056  231.9577 N   0  0  0  0  0  0  0  0  0  0  0  0
  199.2301  -26.8825  230.3310 C   0  0  0  0  0  0  0  0  0  0  0  0
  1  6  1  6
  1 16  1  0
  2  3  2  0
  2 13  1  0
  2 15  1  0
  3  4  1  0
  4 12  2  0
  6  5  1  1
  5 15  1  1
  7 15  1  6
 16  7  1  1
  8  9  2  0
  9 10  2  0
 11  9  1  6
  9 12  1  6
 12 14  1  0
 13 14  2  0
M  CHG  1   1   1
M  END
$$$$
