
     RDKit          3D

 16 17  0  0  0  0  0  0  0  0999 V2000
   87.6213  -34.3287   30.3775 N   0  0  0  0  0  0  0  0  0  0  0  0
   89.6077  -32.7857   33.7809 C   0  0  0  0  0  0  0  0  0  0  0  0
   88.8853  -32.3667   34.8930 C   0  0  0  0  0  0  0  0  0  0  0  0
   89.5109  -31.7287   35.9463 C   0  0  0  0  0  0  0  0  0  0  0  0
   87.6969  -32.7643   32.2389 C   0  0  0  0  0  0  0  0  0  0  0  0
   86.8690  -33.8090   31.5335 C   0  0  0  0  0  0  0  0  0  0  0  0
   89.7334  -33.9269   31.5730 C   0  0  0  0  0  0  0  0  0  0  0  0
   90.9207  -29.2778   37.2591 O   0  0  0  0  0  0  0  0  0  0  0  0
   91.6385  -30.5176   37.1506 S   0  0  1  0  0  0  0  0  0  0  0  0
   93.0464  -30.4621   36.8805 O   0  0  0  0  0  0  0  0  0  0  0  0
   91.3876  -31.4374   38.6216 C   0  0  0  0  0  0  0  0  0  0  0  0
   90.8732  -31.4913   35.8881 C   0  0  0  0  0  0  0  0  0  0  0  0
   90.9877  -32.5740   33.7602 C   0  0  0  0  0  0  0  0  0  0  0  0
   91.6216  -31.9314   34.8088 C   0  0  0  0  0  0  0  0  0  0  0  0
   88.9546  -33.3666   32.6866 N   0  0  0  0  0  0  0  0  0  0  0  0
   88.9062  -34.9309   30.7939 C   0  0  0  0  0  0  0  0  0  0  0  0
  1  6  1  6
  1 16  1  0
  2  3  2  0
  2 13  1  0
  2 15  1  0
  3  4  1  0
  4 12  2  0
  6  5  1  1
  5 15  1  1
  7 15  1  6
 16  7  1  1
  8  9  2  0
  9 10  2  0
 11  9  1  6
  9 12  1  6
 12 14  1  0
 13 14  2  0
M  CHG  1   1   1
M  END
$$$$
