
     RDKit          3D

 16 17  0  0  0  0  0  0  0  0999 V2000
   23.6912  -53.8120   54.1070 N   0  0  0  0  0  0  0  0  0  0  0  0
   24.2317  -57.7968   55.4253 C   0  0  0  0  0  0  0  0  0  0  0  0
   23.2509  -58.5020   56.1145 C   0  0  0  0  0  0  0  0  0  0  0  0
   23.4760  -59.7956   56.5433 C   0  0  0  0  0  0  0  0  0  0  0  0
   25.1506  -55.7198   54.4923 C   0  0  0  0  0  0  0  0  0  0  0  0
   24.9499  -54.2456   54.7393 C   0  0  0  0  0  0  0  0  0  0  0  0
   22.7350  -56.0476   54.4803 C   0  0  0  0  0  0  0  0  0  0  0  0
   26.4498  -62.2469   56.8264 O   0  0  0  0  0  0  0  0  0  0  0  0
   25.0493  -61.9773   56.9999 S   0  0  1  0  0  0  0  0  0  0  0  0
   24.1084  -62.9207   56.4682 O   0  0  0  0  0  0  0  0  0  0  0  0
   24.7290  -61.7726   58.7111 C   0  0  0  0  0  0  0  0  0  0  0  0
   24.6995  -60.3934   56.2952 C   0  0  0  0  0  0  0  0  0  0  0  0
   25.4438  -58.4326   55.1487 C   0  0  0  0  0  0  0  0  0  0  0  0
   25.6794  -59.7264   55.5787 C   0  0  0  0  0  0  0  0  0  0  0  0
   24.0217  -56.4619   55.0578 N   0  0  0  0  0  0  0  0  0  0  0  0
   22.5310  -54.5542   54.6453 C   0  0  0  0  0  0  0  0  0  0  0  0
  1  6  1  6
  1 16  1  0
  2  3  2  0
  2 13  1  0
  2 15  1  0
  3  4  1  0
  4 12  2  0
  6  5  1  1
  5 15  1  1
  7 15  1  6
 16  7  1  1
  8  9  2  0
  9 10  2  0
 11  9  1  6
  9 12  1  6
 12 14  1  0
 13 14  2  0
M  CHG  1   1   1
M  END
$$$$
