
     RDKit          3D

 16 17  0  0  0  0  0  0  0  0999 V2000
  -74.2927  417.2490  -70.1216 N   0  0  0  0  0  0  0  0  0  0  0  0
  -73.3368  419.6066  -66.7396 C   0  0  0  0  0  0  0  0  0  0  0  0
  -73.1318  420.9676  -66.9396 C   0  0  0  0  0  0  0  0  0  0  0  0
  -72.7763  421.7934  -65.8909 C   0  0  0  0  0  0  0  0  0  0  0  0
  -74.9710  418.8255  -68.3975 C   0  0  0  0  0  0  0  0  0  0  0  0
  -75.2856  417.5099  -69.0642 C   0  0  0  0  0  0  0  0  0  0  0  0
  -72.5973  418.4783  -68.8310 C   0  0  0  0  0  0  0  0  0  0  0  0
  -70.5566  422.3882  -63.4907 O   0  0  0  0  0  0  0  0  0  0  0  0
  -71.9797  422.2780  -63.3269 S   0  0  1  0  0  0  0  0  0  0  0  0
  -72.4797  421.7737  -62.0804 O   0  0  0  0  0  0  0  0  0  0  0  0
  -72.6983  423.8495  -63.6224 C   0  0  0  0  0  0  0  0  0  0  0  0
  -72.6087  421.2562  -64.6264 C   0  0  0  0  0  0  0  0  0  0  0  0
  -73.2032  419.0920  -65.4483 C   0  0  0  0  0  0  0  0  0  0  0  0
  -72.8427  419.9112  -64.3932 C   0  0  0  0  0  0  0  0  0  0  0  0
  -73.6261  418.7648  -67.8208 N   0  0  0  0  0  0  0  0  0  0  0  0
  -72.9199  417.1968  -69.5743 C   0  0  0  0  0  0  0  0  0  0  0  0
  1  6  1  6
  1 16  1  0
  2  3  2  0
  2 13  1  0
  2 15  1  0
  3  4  1  0
  4 12  2  0
  6  5  1  1
  5 15  1  1
  7 15  1  6
 16  7  1  1
  8  9  2  0
  9 10  2  0
 11  9  1  6
  9 12  1  6
 12 14  1  0
 13 14  2  0
M  CHG  1   1   1
M  END
$$$$
