
     RDKit          3D

 16 17  0  0  0  0  0  0  0  0999 V2000
 -234.7305  214.3421  127.8606 N   0  0  0  0  0  0  0  0  0  0  0  0
 -232.6676  215.9263  131.1989 C   0  0  0  0  0  0  0  0  0  0  0  0
 -232.6582  217.2880  131.4819 C   0  0  0  0  0  0  0  0  0  0  0  0
 -231.9731  217.7807  132.5754 C   0  0  0  0  0  0  0  0  0  0  0  0
 -233.4719  213.9951  129.9134 C   0  0  0  0  0  0  0  0  0  0  0  0
 -233.5762  213.6412  128.4511 C   0  0  0  0  0  0  0  0  0  0  0  0
 -234.4172  216.1936  129.4496 C   0  0  0  0  0  0  0  0  0  0  0  0
 -229.8868  216.4765  135.5532 O   0  0  0  0  0  0  0  0  0  0  0  0
 -230.2546  217.5587  134.6827 S   0  0  1  0  0  0  0  0  0  0  0  0
 -230.9253  218.6896  135.2566 O   0  0  0  0  0  0  0  0  0  0  0  0
 -228.8156  218.1228  133.8559 C   0  0  0  0  0  0  0  0  0  0  0  0
 -231.2755  216.9088  133.3931 C   0  0  0  0  0  0  0  0  0  0  0  0
 -231.9920  215.0589  132.0598 C   0  0  0  0  0  0  0  0  0  0  0  0
 -231.2993  215.5445  133.1546 C   0  0  0  0  0  0  0  0  0  0  0  0
 -233.3039  215.4438  130.0485 N   0  0  0  0  0  0  0  0  0  0  0  0
 -234.5995  215.8090  127.9943 C   0  0  0  0  0  0  0  0  0  0  0  0
  1  6  1  6
  1 16  1  0
  2  3  2  0
  2 13  1  0
  2 15  1  0
  3  4  1  0
  4 12  2  0
  6  5  1  1
  5 15  1  1
  7 15  1  6
 16  7  1  1
  8  9  2  0
  9 10  2  0
 11  9  1  6
  9 12  1  6
 12 14  1  0
 13 14  2  0
M  CHG  1   1   1
M  END
$$$$
