
     RDKit          3D

 16 17  0  0  0  0  0  0  0  0999 V2000
   50.7222  109.9339  252.4211 N   0  0  0  0  0  0  0  0  0  0  0  0
   47.9803  112.8658  253.7614 C   0  0  0  0  0  0  0  0  0  0  0  0
   48.0311  113.4294  255.0319 C   0  0  0  0  0  0  0  0  0  0  0  0
   47.0951  114.3630  255.4318 C   0  0  0  0  0  0  0  0  0  0  0  0
   48.5706  111.0507  252.2167 C   0  0  0  0  0  0  0  0  0  0  0  0
   49.2667  109.7180  252.3349 C   0  0  0  0  0  0  0  0  0  0  0  0
   50.3347  112.0906  253.5393 C   0  0  0  0  0  0  0  0  0  0  0  0
   45.3854  116.9293  255.7724 O   0  0  0  0  0  0  0  0  0  0  0  0
   44.7877  115.7884  255.1355 S   0  0  1  0  0  0  0  0  0  0  0  0
   43.8690  114.9929  255.8980 O   0  0  0  0  0  0  0  0  0  0  0  0
   43.9827  116.3244  253.6735 C   0  0  0  0  0  0  0  0  0  0  0  0
   46.0850  114.7329  254.5608 C   0  0  0  0  0  0  0  0  0  0  0  0
   46.9781  113.2832  252.8833 C   0  0  0  0  0  0  0  0  0  0  0  0
   46.0337  114.2144  253.2775 C   0  0  0  0  0  0  0  0  0  0  0  0
   48.8894  111.8674  253.3899 N   0  0  0  0  0  0  0  0  0  0  0  0
   51.0775  110.7696  253.5883 C   0  0  0  0  0  0  0  0  0  0  0  0
  1  6  1  6
  1 16  1  0
  2  3  2  0
  2 13  1  0
  2 15  1  0
  3  4  1  0
  4 12  2  0
  6  5  1  1
  5 15  1  1
  7 15  1  6
 16  7  1  1
  8  9  2  0
  9 10  2  0
 11  9  1  6
  9 12  1  6
 12 14  1  0
 13 14  2  0
M  CHG  1   1   1
M  END
$$$$
