
     RDKit          3D

 16 17  0  0  0  0  0  0  0  0999 V2000
   45.2395  -43.7570   23.0746 N   0  0  0  0  0  0  0  0  0  0  0  0
   41.8825  -42.6692   20.7385 C   0  0  0  0  0  0  0  0  0  0  0  0
   40.8194  -41.9354   21.2539 C   0  0  0  0  0  0  0  0  0  0  0  0
   39.7340  -41.6087   20.4646 C   0  0  0  0  0  0  0  0  0  0  0  0
   44.0283  -43.8409   20.9665 C   0  0  0  0  0  0  0  0  0  0  0  0
   44.7014  -44.6585   22.0402 C   0  0  0  0  0  0  0  0  0  0  0  0
   43.4238  -42.1593   22.6246 C   0  0  0  0  0  0  0  0  0  0  0  0
   38.5381  -42.0350   16.8147 O   0  0  0  0  0  0  0  0  0  0  0  0
   38.2319  -41.7666   18.1926 S   0  0  1  0  0  0  0  0  0  0  0  0
   37.7052  -40.4752   18.5287 O   0  0  0  0  0  0  0  0  0  0  0  0
   37.1157  -42.9913   18.7643 C   0  0  0  0  0  0  0  0  0  0  0  0
   39.6978  -42.0290   19.1464 C   0  0  0  0  0  0  0  0  0  0  0  0
   41.8457  -43.0478   19.3950 C   0  0  0  0  0  0  0  0  0  0  0  0
   40.7601  -42.7290   18.5986 C   0  0  0  0  0  0  0  0  0  0  0  0
   42.9448  -43.0577   21.5644 N   0  0  0  0  0  0  0  0  0  0  0  0
   44.1715  -42.9389   23.6888 C   0  0  0  0  0  0  0  0  0  0  0  0
  1  6  1  6
  1 16  1  0
  2  3  2  0
  2 13  1  0
  2 15  1  0
  3  4  1  0
  4 12  2  0
  6  5  1  1
  5 15  1  1
  7 15  1  6
 16  7  1  1
  8  9  2  0
  9 10  2  0
 11  9  1  6
  9 12  1  1
 12 14  1  0
 13 14  2  0
M  CHG  1   1   1
M  END
$$$$
