
     RDKit          3D

 16 17  0  0  0  0  0  0  0  0999 V2000
 -101.4071   72.6736  232.6481 N   0  0  0  0  0  0  0  0  0  0  0  0
 -102.9868   72.6937  236.5742 C   0  0  0  0  0  0  0  0  0  0  0  0
 -103.1859   71.4623  237.1890 C   0  0  0  0  0  0  0  0  0  0  0  0
 -103.7626   71.3794  238.4414 C   0  0  0  0  0  0  0  0  0  0  0  0
 -101.2343   72.0296  234.9877 C   0  0  0  0  0  0  0  0  0  0  0  0
 -100.5249   72.6839  233.8288 C   0  0  0  0  0  0  0  0  0  0  0  0
 -103.3745   72.8086  234.1187 C   0  0  0  0  0  0  0  0  0  0  0  0
 -105.2592   71.0261  240.9014 O   0  0  0  0  0  0  0  0  0  0  0  0
 -105.0588   72.4178  240.6059 S   0  0  1  0  0  0  0  0  0  0  0  0
 -106.2151   73.2613  240.5080 O   0  0  0  0  0  0  0  0  0  0  0  0
 -103.9752   73.0923  241.8074 C   0  0  0  0  0  0  0  0  0  0  0  0
 -104.1597   72.5370  239.0876 C   0  0  0  0  0  0  0  0  0  0  0  0
 -103.3563   73.8523  237.2605 C   0  0  0  0  0  0  0  0  0  0  0  0
 -103.9389   73.7781  238.5133 C   0  0  0  0  0  0  0  0  0  0  0  0
 -102.4683   72.7643  235.2752 N   0  0  0  0  0  0  0  0  0  0  0  0
 -102.6711   73.3950  232.9103 C   0  0  0  0  0  0  0  0  0  0  0  0
  1  6  1  6
  1 16  1  0
  2  3  2  0
  2 13  1  0
  2 15  1  0
  3  4  1  0
  4 12  2  0
  6  5  1  1
  5 15  1  1
  7 15  1  6
 16  7  1  1
  8  9  2  0
  9 10  2  0
 11  9  1  6
  9 12  1  6
 12 14  1  0
 13 14  2  0
M  CHG  1   1   1
M  END
$$$$
