
     RDKit          3D

 16 17  0  0  0  0  0  0  0  0999 V2000
 -244.1677  530.2225  419.1930 N   0  0  0  0  0  0  0  0  0  0  0  0
 -240.8437  527.6605  418.6489 C   0  0  0  0  0  0  0  0  0  0  0  0
 -239.5563  528.1681  418.5101 C   0  0  0  0  0  0  0  0  0  0  0  0
 -238.4763  527.3249  418.3352 C   0  0  0  0  0  0  0  0  0  0  0  0
 -243.1432  528.0287  419.4269 C   0  0  0  0  0  0  0  0  0  0  0  0
 -244.3451  528.7852  418.9194 C   0  0  0  0  0  0  0  0  0  0  0  0
 -241.7314  529.9632  418.9710 C   0  0  0  0  0  0  0  0  0  0  0  0
 -237.3645  524.6323  416.4679 O   0  0  0  0  0  0  0  0  0  0  0  0
 -237.3256  524.8935  417.8801 S   0  0  1  0  0  0  0  0  0  0  0  0
 -237.3550  523.7734  418.7758 O   0  0  0  0  0  0  0  0  0  0  0  0
 -235.9003  525.8517  418.2307 C   0  0  0  0  0  0  0  0  0  0  0  0
 -238.6797  525.9570  418.2837 C   0  0  0  0  0  0  0  0  0  0  0  0
 -241.0223  526.2757  418.6359 C   0  0  0  0  0  0  0  0  0  0  0  0
 -239.9466  525.4241  418.4563 C   0  0  0  0  0  0  0  0  0  0  0  0
 -241.9410  528.5245  418.7534 N   0  0  0  0  0  0  0  0  0  0  0  0
 -242.9517  530.7524  418.5386 C   0  0  0  0  0  0  0  0  0  0  0  0
  1  6  1  6
  1 16  1  0
  2  3  2  0
  2 13  1  0
  2 15  1  0
  3  4  1  0
  4 12  2  0
  6  5  1  1
  5 15  1  1
  7 15  1  6
 16  7  1  1
  8  9  2  0
  9 10  2  0
 11  9  1  6
  9 12  1  1
 12 14  1  0
 13 14  2  0
M  CHG  1   1   1
M  END
$$$$
