
     RDKit          3D

 16 17  0  0  0  0  0  0  0  0999 V2000
  134.2828  -74.8756   67.9514 N   0  0  0  0  0  0  0  0  0  0  0  0
  137.3495  -77.3271   66.3718 C   0  0  0  0  0  0  0  0  0  0  0  0
  137.2112  -77.7550   65.0557 C   0  0  0  0  0  0  0  0  0  0  0  0
  138.1330  -78.6126   64.4879 C   0  0  0  0  0  0  0  0  0  0  0  0
  135.9818  -75.2909   66.2606 C   0  0  0  0  0  0  0  0  0  0  0  0
  135.4474  -74.2952   67.2593 C   0  0  0  0  0  0  0  0  0  0  0  0
  135.2511  -77.1223   67.6940 C   0  0  0  0  0  0  0  0  0  0  0  0
  140.4752  -80.0141   63.1805 O   0  0  0  0  0  0  0  0  0  0  0  0
  140.2767  -80.2979   64.5749 S   0  0  1  0  0  0  0  0  0  0  0  0
  139.7569  -81.5855   64.9353 O   0  0  0  0  0  0  0  0  0  0  0  0
  141.7957  -80.0536   65.4150 C   0  0  0  0  0  0  0  0  0  0  0  0
  139.2018  -79.0629   65.2433 C   0  0  0  0  0  0  0  0  0  0  0  0
  138.4572  -77.7599   67.1037 C   0  0  0  0  0  0  0  0  0  0  0  0
  139.3828  -78.6228   66.5441 C   0  0  0  0  0  0  0  0  0  0  0  0
  136.3724  -76.5158   66.9620 N   0  0  0  0  0  0  0  0  0  0  0  0
  134.6400  -76.1245   68.6583 C   0  0  0  0  0  0  0  0  0  0  0  0
  1  6  1  6
  1 16  1  0
  2  3  2  0
  2 13  1  0
  2 15  1  0
  3  4  1  0
  4 12  2  0
  6  5  1  1
  5 15  1  1
  7 15  1  6
 16  7  1  1
  8  9  2  0
  9 10  2  0
 11  9  1  6
  9 12  1  1
 12 14  1  0
 13 14  2  0
M  CHG  1   1   1
M  END
$$$$
