
     RDKit          3D

 16 17  0  0  0  0  0  0  0  0999 V2000
  183.7574  314.1725  426.0439 N   0  0  0  0  0  0  0  0  0  0  0  0
  185.8836  310.7790  424.6749 C   0  0  0  0  0  0  0  0  0  0  0  0
  186.1534  309.6689  425.4678 C   0  0  0  0  0  0  0  0  0  0  0  0
  186.8992  308.6131  424.9805 C   0  0  0  0  0  0  0  0  0  0  0  0
  185.6019  313.2160  424.7784 C   0  0  0  0  0  0  0  0  0  0  0  0
  185.2171  314.2125  425.8429 C   0  0  0  0  0  0  0  0  0  0  0  0
  183.7416  311.7872  425.4418 C   0  0  0  0  0  0  0  0  0  0  0  0
  187.8027  306.1449  423.1846 O   0  0  0  0  0  0  0  0  0  0  0  0
  188.4973  307.4014  423.1310 S   0  0  1  0  0  0  0  0  0  0  0  0
  189.7270  307.5255  423.8595 O   0  0  0  0  0  0  0  0  0  0  0  0
  188.8008  307.7993  421.4510 C   0  0  0  0  0  0  0  0  0  0  0  0
  187.3956  308.6671  423.6898 C   0  0  0  0  0  0  0  0  0  0  0  0
  186.3582  310.7954  423.3618 C   0  0  0  0  0  0  0  0  0  0  0  0
  187.1100  309.7443  422.8672 C   0  0  0  0  0  0  0  0  0  0  0  0
  185.1888  311.8757  425.2000 N   0  0  0  0  0  0  0  0  0  0  0  0
  183.3043  312.8263  426.4559 C   0  0  0  0  0  0  0  0  0  0  0  0
  1  6  1  6
  1 16  1  0
  2  3  2  0
  2 13  1  0
  2 15  1  0
  3  4  1  0
  4 12  2  0
  6  5  1  1
  5 15  1  1
  7 15  1  6
 16  7  1  1
  8  9  2  0
  9 10  2  0
 11  9  1  6
  9 12  1  1
 12 14  1  0
 13 14  2  0
M  CHG  1   1   1
M  END
$$$$
