
     RDKit          3D

 16 17  0  0  0  0  0  0  0  0999 V2000
   25.0135  -32.1524  -21.2157 N   0  0  0  0  0  0  0  0  0  0  0  0
   28.4222  -33.6683  -23.2137 C   0  0  0  0  0  0  0  0  0  0  0  0
   28.9305  -34.8866  -22.7760 C   0  0  0  0  0  0  0  0  0  0  0  0
   30.0855  -35.4111  -23.3226 C   0  0  0  0  0  0  0  0  0  0  0  0
   26.1546  -33.9902  -22.3286 C   0  0  0  0  0  0  0  0  0  0  0  0
   24.8910  -33.1685  -22.2762 C   0  0  0  0  0  0  0  0  0  0  0  0
   27.4431  -32.0574  -21.5890 C   0  0  0  0  0  0  0  0  0  0  0  0
   33.2091  -35.3697  -23.7507 O   0  0  0  0  0  0  0  0  0  0  0  0
   32.3231  -35.2912  -24.8790 S   0  0  1  0  0  0  0  0  0  0  0  0
   32.7215  -34.4844  -25.9963 O   0  0  0  0  0  0  0  0  0  0  0  0
   32.0024  -36.9172  -25.4500 C   0  0  0  0  0  0  0  0  0  0  0  0
   30.7533  -34.7080  -24.3102 C   0  0  0  0  0  0  0  0  0  0  0  0
   29.0880  -32.9949  -24.2400 C   0  0  0  0  0  0  0  0  0  0  0  0
   30.2481  -33.5108  -24.7898 C   0  0  0  0  0  0  0  0  0  0  0  0
   27.2918  -33.1095  -22.6045 N   0  0  0  0  0  0  0  0  0  0  0  0
   26.1637  -31.2546  -21.4561 C   0  0  0  0  0  0  0  0  0  0  0  0
  1  6  1  6
  1 16  1  0
  2  3  2  0
  2 13  1  0
  2 15  1  0
  3  4  1  0
  4 12  2  0
  6  5  1  1
  5 15  1  1
  7 15  1  6
 16  7  1  1
  8  9  2  0
  9 10  2  0
 11  9  1  6
  9 12  1  1
 12 14  1  0
 13 14  2  0
M  CHG  1   1   1
M  END
$$$$
