
     RDKit          3D

 16 17  0  0  0  0  0  0  0  0999 V2000
  207.6959  -33.7291 -767.2812 N   0  0  0  0  0  0  0  0  0  0  0  0
  203.5924  -33.4441 -766.2860 C   0  0  0  0  0  0  0  0  0  0  0  0
  202.6844  -34.1806 -767.0394 C   0  0  0  0  0  0  0  0  0  0  0  0
  201.3240  -34.0430 -766.8442 C   0  0  0  0  0  0  0  0  0  0  0  0
  205.4304  -34.6031 -767.4296 C   0  0  0  0  0  0  0  0  0  0  0  0
  206.8653  -34.9335 -767.1032 C   0  0  0  0  0  0  0  0  0  0  0  0
  205.7801  -32.3175 -766.6570 C   0  0  0  0  0  0  0  0  0  0  0  0
  198.6723  -32.2914 -767.0211 O   0  0  0  0  0  0  0  0  0  0  0  0
  199.1203  -32.8433 -765.7725 S   0  0  1  0  0  0  0  0  0  0  0  0
  198.8828  -32.0885 -764.5759 O   0  0  0  0  0  0  0  0  0  0  0  0
  198.4102  -34.4344 -765.5796 C   0  0  0  0  0  0  0  0  0  0  0  0
  200.8578  -33.1500 -765.8950 C   0  0  0  0  0  0  0  0  0  0  0  0
  203.1026  -32.5794 -765.3050 C   0  0  0  0  0  0  0  0  0  0  0  0
  201.7413  -32.4320 -765.1060 C   0  0  0  0  0  0  0  0  0  0  0  0
  204.9666  -33.5362 -766.5398 N   0  0  0  0  0  0  0  0  0  0  0  0
  207.2436  -32.6254 -766.4070 C   0  0  0  0  0  0  0  0  0  0  0  0
  1  6  1  6
  1 16  1  0
  2  3  2  0
  2 13  1  0
  2 15  1  0
  3  4  1  0
  4 12  2  0
  6  5  1  1
  5 15  1  1
  7 15  1  6
 16  7  1  1
  8  9  2  0
  9 10  2  0
 11  9  1  6
  9 12  1  6
 12 14  1  0
 13 14  2  0
M  CHG  1   1   1
M  END
$$$$
