
     RDKit          3D

 16 17  0  0  0  0  0  0  0  0999 V2000
 1566.6566 -441.4396  259.3624 N   0  0  0  0  0  0  0  0  0  0  0  0
 1562.5201 -440.6326  259.7510 C   0  0  0  0  0  0  0  0  0  0  0  0
 1561.5938 -441.0513  258.8027 C   0  0  0  0  0  0  0  0  0  0  0  0
 1560.2504 -440.7693  258.9516 C   0  0  0  0  0  0  0  0  0  0  0  0
 1564.7991 -440.5632  260.6652 C   0  0  0  0  0  0  0  0  0  0  0  0
 1566.1726 -440.2692  260.1161 C   0  0  0  0  0  0  0  0  0  0  0  0
 1564.3419 -442.0042  258.7529 C   0  0  0  0  0  0  0  0  0  0  0  0
 1557.6696 -439.2601  258.8176 O   0  0  0  0  0  0  0  0  0  0  0  0
 1558.1337 -439.5345  260.1495 S   0  0  1  0  0  0  0  0  0  0  0  0
 1558.0385 -438.4887  261.1270 O   0  0  0  0  0  0  0  0  0  0  0  0
 1557.2827 -440.9434  260.7555 C   0  0  0  0  0  0  0  0  0  0  0  0
 1559.8220 -440.0487  260.0529 C   0  0  0  0  0  0  0  0  0  0  0  0
 1562.0631 -439.9431  260.8758 C   0  0  0  0  0  0  0  0  0  0  0  0
 1560.7195 -439.6523  261.0304 C   0  0  0  0  0  0  0  0  0  0  0  0
 1563.8885 -440.8597  259.5563 N   0  0  0  0  0  0  0  0  0  0  0  0
 1565.7522 -441.7756  258.2429 C   0  0  0  0  0  0  0  0  0  0  0  0
  1  6  1  6
  1 16  1  0
  2  3  2  0
  2 13  1  0
  2 15  1  0
  3  4  1  0
  4 12  2  0
  6  5  1  1
  5 15  1  1
  7 15  1  6
 16  7  1  1
  8  9  2  0
  9 10  2  0
 11  9  1  6
  9 12  1  6
 12 14  1  0
 13 14  2  0
M  CHG  1   1   1
M  END
$$$$
