
     RDKit          3D

 16 17  0  0  0  0  0  0  0  0999 V2000
 -346.5293 -202.6121  -60.0081 N   0  0  0  0  0  0  0  0  0  0  0  0
 -342.4355 -202.7621  -61.0697 C   0  0  0  0  0  0  0  0  0  0  0  0
 -341.3964 -202.6021  -60.1590 C   0  0  0  0  0  0  0  0  0  0  0  0
 -340.0804 -202.5938  -60.5782 C   0  0  0  0  0  0  0  0  0  0  0  0
 -344.6902 -201.8505  -61.4066 C   0  0  0  0  0  0  0  0  0  0  0  0
 -345.8240 -201.4195  -60.5102 C   0  0  0  0  0  0  0  0  0  0  0  0
 -344.4291 -203.8900  -60.0972 C   0  0  0  0  0  0  0  0  0  0  0  0
 -337.2710 -202.4811  -61.3245 O   0  0  0  0  0  0  0  0  0  0  0  0
 -338.1239 -202.5418  -62.4790 S   0  0  1  0  0  0  0  0  0  0  0  0
 -338.0839 -201.4486  -63.4071 O   0  0  0  0  0  0  0  0  0  0  0  0
 -337.7811 -204.0251  -63.3479 C   0  0  0  0  0  0  0  0  0  0  0  0
 -339.7925 -202.7333  -61.9248 C   0  0  0  0  0  0  0  0  0  0  0  0
 -342.1215 -202.9430  -62.4183 C   0  0  0  0  0  0  0  0  0  0  0  0
 -340.8064 -202.9312  -62.8474 C   0  0  0  0  0  0  0  0  0  0  0  0
 -343.7685 -202.6971  -60.6458 N   0  0  0  0  0  0  0  0  0  0  0  0
 -345.6218 -203.4976  -59.2470 C   0  0  0  0  0  0  0  0  0  0  0  0
  1  6  1  6
  1 16  1  0
  2  3  2  0
  2 13  1  0
  2 15  1  0
  3  4  1  0
  4 12  2  0
  6  5  1  1
  5 15  1  1
  7 15  1  6
 16  7  1  1
  8  9  2  0
  9 10  2  0
 11  9  1  6
  9 12  1  1
 12 14  1  0
 13 14  2  0
M  CHG  1   1   1
M  END
$$$$
