
     RDKit          3D

 16 17  0  0  0  0  0  0  0  0999 V2000
  100.5807  655.2697  327.8491 N   0  0  0  0  0  0  0  0  0  0  0  0
  103.9388  654.4902  330.3039 C   0  0  0  0  0  0  0  0  0  0  0  0
  103.8879  654.8748  331.6394 C   0  0  0  0  0  0  0  0  0  0  0  0
  104.9986  654.7627  332.4529 C   0  0  0  0  0  0  0  0  0  0  0  0
  101.6342  655.2957  330.0416 C   0  0  0  0  0  0  0  0  0  0  0  0
  100.4227  654.8604  329.2561 C   0  0  0  0  0  0  0  0  0  0  0  0
  103.0203  655.0284  328.0545 C   0  0  0  0  0  0  0  0  0  0  0  0
  107.2551  654.2618  334.3008 O   0  0  0  0  0  0  0  0  0  0  0  0
  107.6467  654.3007  332.9192 S   0  0  1  0  0  0  0  0  0  0  0  0
  108.4641  655.3941  332.4791 O   0  0  0  0  0  0  0  0  0  0  0  0
  108.4637  652.7996  332.5289 C   0  0  0  0  0  0  0  0  0  0  0  0
  106.1823  654.2739  331.9280 C   0  0  0  0  0  0  0  0  0  0  0  0
  105.1304  653.9607  329.8046 C   0  0  0  0  0  0  0  0  0  0  0  0
  106.2490  653.8494  330.6112 C   0  0  0  0  0  0  0  0  0  0  0  0
  102.8301  654.6746  329.4684 N   0  0  0  0  0  0  0  0  0  0  0  0
  101.7899  654.6707  327.2435 C   0  0  0  0  0  0  0  0  0  0  0  0
  1  6  1  6
  1 16  1  0
  2  3  2  0
  2 13  1  0
  2 15  1  0
  3  4  1  0
  4 12  2  0
  6  5  1  1
  5 15  1  1
  7 15  1  6
 16  7  1  1
  8  9  2  0
  9 10  2  0
 11  9  1  6
  9 12  1  6
 12 14  1  0
 13 14  2  0
M  CHG  1   1   1
M  END
$$$$
