
     RDKit          3D

 16 17  0  0  0  0  0  0  0  0999 V2000
    1.7889  -43.5467   44.4742 N   0  0  0  0  0  0  0  0  0  0  0  0
    1.3579  -40.7230   47.5968 C   0  0  0  0  0  0  0  0  0  0  0  0
    1.4473  -41.0849   48.9367 C   0  0  0  0  0  0  0  0  0  0  0  0
    1.1680  -40.1750   49.9376 C   0  0  0  0  0  0  0  0  0  0  0  0
    0.5710  -42.7252   46.4132 C   0  0  0  0  0  0  0  0  0  0  0  0
    1.2224  -43.9290   45.7800 C   0  0  0  0  0  0  0  0  0  0  0  0
    2.1908  -41.2706   45.3166 C   0  0  0  0  0  0  0  0  0  0  0  0
    1.3107  -36.8460   51.1276 O   0  0  0  0  0  0  0  0  0  0  0  0
    0.2510  -37.7831   50.8763 S   0  0  1  0  0  0  0  0  0  0  0  0
   -0.2329  -38.5671   51.9760 O   0  0  0  0  0  0  0  0  0  0  0  0
   -1.1003  -36.9195   50.1685 C   0  0  0  0  0  0  0  0  0  0  0  0
    0.7810  -38.8892   49.6022 C   0  0  0  0  0  0  0  0  0  0  0  0
    1.0062  -39.4092   47.2802 C   0  0  0  0  0  0  0  0  0  0  0  0
    0.7202  -38.4928   48.2765 C   0  0  0  0  0  0  0  0  0  0  0  0
    1.5724  -41.6710   46.5886 N   0  0  0  0  0  0  0  0  0  0  0  0
    2.7943  -42.4712   44.6141 C   0  0  0  0  0  0  0  0  0  0  0  0
  1  6  1  6
  1 16  1  0
  2  3  2  0
  2 13  1  0
  2 15  1  0
  3  4  1  0
  4 12  2  0
  6  5  1  1
  5 15  1  1
  7 15  1  6
 16  7  1  1
  8  9  2  0
  9 10  2  0
 11  9  1  6
  9 12  1  6
 12 14  1  0
 13 14  2  0
M  CHG  1   1   1
M  END
$$$$
