
     RDKit          3D

 16 17  0  0  0  0  0  0  0  0999 V2000
   23.4525 -199.0500 -280.7586 N   0  0  0  0  0  0  0  0  0  0  0  0
   26.3106 -201.2212 -278.5165 C   0  0  0  0  0  0  0  0  0  0  0  0
   26.4232 -201.1331 -277.1331 C   0  0  0  0  0  0  0  0  0  0  0  0
   27.4415 -201.7809 -276.4614 C   0  0  0  0  0  0  0  0  0  0  0  0
   25.7149 -199.2776 -279.8937 C   0  0  0  0  0  0  0  0  0  0  0  0
   24.5206 -198.3640 -280.0098 C   0  0  0  0  0  0  0  0  0  0  0  0
   24.2341 -201.2140 -279.8879 C   0  0  0  0  0  0  0  0  0  0  0  0
   29.2967 -204.0911 -275.3200 O   0  0  0  0  0  0  0  0  0  0  0  0
   29.7718 -203.1940 -276.3367 S   0  0  1  0  0  0  0  0  0  0  0  0
   30.6210 -202.1088 -275.9377 O   0  0  0  0  0  0  0  0  0  0  0  0
   30.6026 -204.1315 -277.5631 C   0  0  0  0  0  0  0  0  0  0  0  0
   28.3703 -202.5170 -277.1764 C   0  0  0  0  0  0  0  0  0  0  0  0
   27.2332 -202.0029 -279.2149 C   0  0  0  0  0  0  0  0  0  0  0  0
   28.2591 -202.6512 -278.5503 C   0  0  0  0  0  0  0  0  0  0  0  0
   25.3189 -200.5032 -279.1963 N   0  0  0  0  0  0  0  0  0  0  0  0
   23.0395 -200.3018 -280.0883 C   0  0  0  0  0  0  0  0  0  0  0  0
  1  6  1  6
  1 16  1  0
  2  3  2  0
  2 13  1  0
  2 15  1  0
  3  4  1  0
  4 12  2  0
  6  5  1  1
  5 15  1  1
  7 15  1  6
 16  7  1  1
  8  9  2  0
  9 10  2  0
 11  9  1  6
  9 12  1  6
 12 14  1  0
 13 14  2  0
M  CHG  1   1   1
M  END
$$$$
