
     RDKit          3D

 16 17  0  0  0  0  0  0  0  0999 V2000
  577.0671 -717.9910  -58.6627 N   0  0  0  0  0  0  0  0  0  0  0  0
  579.4163 -717.1797  -62.0882 C   0  0  0  0  0  0  0  0  0  0  0  0
  580.2849 -718.1024  -62.6615 C   0  0  0  0  0  0  0  0  0  0  0  0
  581.0915 -717.7507  -63.7264 C   0  0  0  0  0  0  0  0  0  0  0  0
  578.9027 -716.7930  -59.7184 C   0  0  0  0  0  0  0  0  0  0  0  0
  578.4972 -717.6548  -58.5487 C   0  0  0  0  0  0  0  0  0  0  0  0
  577.2446 -717.9081  -61.1151 C   0  0  0  0  0  0  0  0  0  0  0  0
  583.4396 -715.6248  -64.8112 O   0  0  0  0  0  0  0  0  0  0  0  0
  582.2031 -715.9622  -65.4608 S   0  0  1  0  0  0  0  0  0  0  0  0
  581.5781 -714.9669  -66.2836 O   0  0  0  0  0  0  0  0  0  0  0  0
  582.4556 -717.4050  -66.4237 C   0  0  0  0  0  0  0  0  0  0  0  0
  581.0444 -716.4589  -64.2207 C   0  0  0  0  0  0  0  0  0  0  0  0
  579.3541 -715.8934  -62.6283 C   0  0  0  0  0  0  0  0  0  0  0  0
  580.1620 -715.5316  -63.6915 C   0  0  0  0  0  0  0  0  0  0  0  0
  578.6554 -717.5230  -60.9638 N   0  0  0  0  0  0  0  0  0  0  0  0
  576.7803 -718.7164  -59.9190 C   0  0  0  0  0  0  0  0  0  0  0  0
  1  6  1  6
  1 16  1  0
  2  3  2  0
  2 13  1  0
  2 15  1  0
  3  4  1  0
  4 12  2  0
  6  5  1  1
  5 15  1  1
  7 15  1  6
 16  7  1  1
  8  9  2  0
  9 10  2  0
 11  9  1  6
  9 12  1  1
 12 14  1  0
 13 14  2  0
M  CHG  1   1   1
M  END
$$$$
