
     RDKit          3D

 16 17  0  0  0  0  0  0  0  0999 V2000
  175.7206 -201.1939   -2.8065 N   0  0  0  0  0  0  0  0  0  0  0  0
  174.5811 -204.9944   -4.2790 C   0  0  0  0  0  0  0  0  0  0  0  0
  175.5314 -205.7841   -4.9172 C   0  0  0  0  0  0  0  0  0  0  0  0
  175.2001 -207.0287   -5.4165 C   0  0  0  0  0  0  0  0  0  0  0  0
  174.9080 -203.4504   -2.3980 C   0  0  0  0  0  0  0  0  0  0  0  0
  174.6613 -201.9828   -2.1524 C   0  0  0  0  0  0  0  0  0  0  0  0
  175.9294 -202.9198   -4.5470 C   0  0  0  0  0  0  0  0  0  0  0  0
  172.5940 -209.7404   -5.1907 O   0  0  0  0  0  0  0  0  0  0  0  0
  173.4370 -208.9998   -6.0879 S   0  0  1  0  0  0  0  0  0  0  0  0
  174.6289 -209.6335   -6.5736 O   0  0  0  0  0  0  0  0  0  0  0  0
  172.4760 -208.4892   -7.4620 C   0  0  0  0  0  0  0  0  0  0  0  0
  173.9012 -207.4903   -5.2917 C   0  0  0  0  0  0  0  0  0  0  0  0
  173.2869 -205.4958   -4.1264 C   0  0  0  0  0  0  0  0  0  0  0  0
  172.9453 -206.7393   -4.6278 C   0  0  0  0  0  0  0  0  0  0  0  0
  174.9072 -203.7050   -3.8402 N   0  0  0  0  0  0  0  0  0  0  0  0
  175.7573 -201.4401   -4.2642 C   0  0  0  0  0  0  0  0  0  0  0  0
  1  6  1  6
  1 16  1  0
  2  3  2  0
  2 13  1  0
  2 15  1  0
  3  4  1  0
  4 12  2  0
  6  5  1  1
  5 15  1  1
  7 15  1  6
 16  7  1  1
  8  9  2  0
  9 10  2  0
 11  9  1  6
  9 12  1  1
 12 14  1  0
 13 14  2  0
M  CHG  1   1   1
M  END
$$$$
