
     RDKit          3D

 16 17  0  0  0  0  0  0  0  0999 V2000
 -266.3868 -389.6163   25.3322 N   0  0  0  0  0  0  0  0  0  0  0  0
 -265.1736 -393.6222   25.9577 C   0  0  0  0  0  0  0  0  0  0  0  0
 -263.9244 -393.9395   26.4803 C   0  0  0  0  0  0  0  0  0  0  0  0
 -263.4955 -395.2508   26.5471 C   0  0  0  0  0  0  0  0  0  0  0  0
 -264.8610 -391.4502   24.8559 C   0  0  0  0  0  0  0  0  0  0  0  0
 -264.9662 -390.0046   25.2729 C   0  0  0  0  0  0  0  0  0  0  0  0
 -266.9897 -391.9208   25.9464 C   0  0  0  0  0  0  0  0  0  0  0  0
 -263.5809 -398.4186   27.3364 O   0  0  0  0  0  0  0  0  0  0  0  0
 -263.6936 -397.9153   25.9954 S   0  0  1  0  0  0  0  0  0  0  0  0
 -262.5175 -397.9115   25.1738 O   0  0  0  0  0  0  0  0  0  0  0  0
 -264.9508 -398.8130   25.1671 C   0  0  0  0  0  0  0  0  0  0  0  0
 -264.3150 -396.2616   26.0753 C   0  0  0  0  0  0  0  0  0  0  0  0
 -266.0020 -394.6599   25.5255 C   0  0  0  0  0  0  0  0  0  0  0  0
 -265.5783 -395.9757   25.5844 C   0  0  0  0  0  0  0  0  0  0  0  0
 -265.5708 -392.2856   25.8270 N   0  0  0  0  0  0  0  0  0  0  0  0
 -267.1370 -390.4524   26.2941 C   0  0  0  0  0  0  0  0  0  0  0  0
  1  6  1  6
  1 16  1  0
  2  3  2  0
  2 13  1  0
  2 15  1  0
  3  4  1  0
  4 12  2  0
  6  5  1  1
  5 15  1  1
  7 15  1  6
 16  7  1  1
  8  9  2  0
  9 10  2  0
 11  9  1  6
  9 12  1  1
 12 14  1  0
 13 14  2  0
M  CHG  1   1   1
M  END
$$$$
