
     RDKit          3D

 16 17  0  0  0  0  0  0  0  0999 V2000
  353.1296-1086.2218  196.8952 N   0  0  0  0  0  0  0  0  0  0  0  0
  354.9606-1082.5453  195.8733 C   0  0  0  0  0  0  0  0  0  0  0  0
  355.6215-1082.4778  194.6515 C   0  0  0  0  0  0  0  0  0  0  0  0
  356.3164-1081.3422  194.2829 C   0  0  0  0  0  0  0  0  0  0  0  0
  353.5959-1084.4897  195.2513 C   0  0  0  0  0  0  0  0  0  0  0  0
  352.5162-1085.3060  195.9160 C   0  0  0  0  0  0  0  0  0  0  0  0
  354.9292-1084.5912  197.2897 C   0  0  0  0  0  0  0  0  0  0  0  0
  357.3500-1077.9550  195.8479 O   0  0  0  0  0  0  0  0  0  0  0  0
  357.4030-1078.8842  194.7536 S   0  0  1  0  0  0  0  0  0  0  0  0
  357.0424-1078.4121  193.4480 O   0  0  0  0  0  0  0  0  0  0  0  0
  359.0177-1079.5626  194.6760 C   0  0  0  0  0  0  0  0  0  0  0  0
  356.3668-1080.2620  195.1474 C   0  0  0  0  0  0  0  0  0  0  0  0
  354.9893-1081.4303  196.7132 C   0  0  0  0  0  0  0  0  0  0  0  0
  355.6868-1080.2909  196.3536 C   0  0  0  0  0  0  0  0  0  0  0  0
  354.3196-1083.7258  196.2698 N   0  0  0  0  0  0  0  0  0  0  0  0
  353.8821-1085.4813  197.9308 C   0  0  0  0  0  0  0  0  0  0  0  0
  1  6  1  6
  1 16  1  0
  2  3  2  0
  2 13  1  0
  2 15  1  0
  3  4  1  0
  4 12  2  0
  6  5  1  1
  5 15  1  1
  7 15  1  6
 16  7  1  1
  8  9  2  0
  9 10  2  0
 11  9  1  6
  9 12  1  1
 12 14  1  0
 13 14  2  0
M  CHG  1   1   1
M  END
$$$$
