
     RDKit          3D

 16 17  0  0  0  0  0  0  0  0999 V2000
 -305.6661 -803.8818  258.3486 N   0  0  0  0  0  0  0  0  0  0  0  0
 -307.1737 -800.7998  255.8711 C   0  0  0  0  0  0  0  0  0  0  0  0
 -306.7159 -799.4940  256.0084 C   0  0  0  0  0  0  0  0  0  0  0  0
 -307.2003 -798.4834  255.2005 C   0  0  0  0  0  0  0  0  0  0  0  0
 -306.5114 -803.1423  256.1906 C   0  0  0  0  0  0  0  0  0  0  0  0
 -306.6544 -804.1628  257.2921 C   0  0  0  0  0  0  0  0  0  0  0  0
 -305.7864 -801.4821  257.8215 C   0  0  0  0  0  0  0  0  0  0  0  0
 -310.2214 -797.2179  253.8870 O   0  0  0  0  0  0  0  0  0  0  0  0
 -308.9121 -797.4512  253.3437 S   0  0  1  0  0  0  0  0  0  0  0  0
 -308.8043 -797.7517  251.9451 O   0  0  0  0  0  0  0  0  0  0  0  0
 -307.9067 -796.0587  253.6951 C   0  0  0  0  0  0  0  0  0  0  0  0
 -308.1644 -798.7725  254.2503 C   0  0  0  0  0  0  0  0  0  0  0  0
 -308.1157 -801.0784  254.8788 C   0  0  0  0  0  0  0  0  0  0  0  0
 -308.6099 -800.0714  254.0684 C   0  0  0  0  0  0  0  0  0  0  0  0
 -306.7307 -801.8035  256.7416 N   0  0  0  0  0  0  0  0  0  0  0  0
 -305.8499 -802.5292  258.9165 C   0  0  0  0  0  0  0  0  0  0  0  0
  1  6  1  6
  1 16  1  0
  2  3  2  0
  2 13  1  0
  2 15  1  0
  3  4  1  0
  4 12  2  0
  6  5  1  1
  5 15  1  1
  7 15  1  6
 16  7  1  1
  8  9  2  0
  9 10  2  0
 11  9  1  6
  9 12  1  1
 12 14  1  0
 13 14  2  0
M  CHG  1   1   1
M  END
$$$$
