
     RDKit          3D

 16 17  0  0  0  0  0  0  0  0999 V2000
 -321.2990  473.7218 -211.1249 N   0  0  0  0  0  0  0  0  0  0  0  0
 -318.6523  472.2718 -208.1579 C   0  0  0  0  0  0  0  0  0  0  0  0
 -319.0748  472.0944 -206.8446 C   0  0  0  0  0  0  0  0  0  0  0  0
 -318.2097  471.6179 -205.8792 C   0  0  0  0  0  0  0  0  0  0  0  0
 -319.3298  472.4312 -210.5126 C   0  0  0  0  0  0  0  0  0  0  0  0
 -319.8669  473.5189 -211.4087 C   0  0  0  0  0  0  0  0  0  0  0  0
 -320.9266  473.0659 -208.7833 C   0  0  0  0  0  0  0  0  0  0  0  0
 -315.3841  469.5119 -205.1286 O   0  0  0  0  0  0  0  0  0  0  0  0
 -315.7498  470.8898 -204.9501 S   0  0  1  0  0  0  0  0  0  0  0  0
 -316.3072  471.2832 -203.6881 O   0  0  0  0  0  0  0  0  0  0  0  0
 -314.3449  471.8861 -205.2752 C   0  0  0  0  0  0  0  0  0  0  0  0
 -316.9006  471.3258 -206.2205 C   0  0  0  0  0  0  0  0  0  0  0  0
 -317.3395  471.9319 -208.4906 C   0  0  0  0  0  0  0  0  0  0  0  0
 -316.4648  471.4584 -207.5286 C   0  0  0  0  0  0  0  0  0  0  0  0
 -319.5148  472.8231 -209.1136 N   0  0  0  0  0  0  0  0  0  0  0  0
 -321.5225  474.1043 -209.7139 C   0  0  0  0  0  0  0  0  0  0  0  0
  1  6  1  6
  1 16  1  0
  2  3  2  0
  2 13  1  0
  2 15  1  0
  3  4  1  0
  4 12  2  0
  6  5  1  1
  5 15  1  1
  7 15  1  6
 16  7  1  1
  8  9  2  0
  9 10  2  0
 11  9  1  6
  9 12  1  6
 12 14  1  0
 13 14  2  0
M  CHG  1   1   1
M  END
$$$$
