
     RDKit          3D

 16 17  0  0  0  0  0  0  0  0999 V2000
   99.4351  102.4509  -87.1108 N   0  0  0  0  0  0  0  0  0  0  0  0
   96.2595  102.4774  -89.9081 C   0  0  0  0  0  0  0  0  0  0  0  0
   95.5272  103.6533  -90.0321 C   0  0  0  0  0  0  0  0  0  0  0  0
   94.4304  103.7212  -90.8689 C   0  0  0  0  0  0  0  0  0  0  0  0
   98.3276  103.4638  -89.0253 C   0  0  0  0  0  0  0  0  0  0  0  0
   99.6331  102.9314  -88.4899 C   0  0  0  0  0  0  0  0  0  0  0  0
   97.1092  101.8601  -87.6520 C   0  0  0  0  0  0  0  0  0  0  0  0
   92.5872  103.7660  -93.3976 O   0  0  0  0  0  0  0  0  0  0  0  0
   92.5421  102.6356  -92.5119 S   0  0  1  0  0  0  0  0  0  0  0  0
   91.4464  102.5420  -91.5905 O   0  0  0  0  0  0  0  0  0  0  0  0
   92.5894  101.1713  -93.4743 C   0  0  0  0  0  0  0  0  0  0  0  0
   94.0471  102.5997  -91.5837 C   0  0  0  0  0  0  0  0  0  0  0  0
   95.8812  101.3696  -90.6694 C   0  0  0  0  0  0  0  0  0  0  0  0
   94.7811  101.4276  -91.5064 C   0  0  0  0  0  0  0  0  0  0  0  0
   97.3256  102.3959  -89.0036 N   0  0  0  0  0  0  0  0  0  0  0  0
   98.4162  101.3807  -87.0512 C   0  0  0  0  0  0  0  0  0  0  0  0
  1  6  1  6
  1 16  1  0
  2  3  2  0
  2 13  1  0
  2 15  1  0
  3  4  1  0
  4 12  2  0
  6  5  1  1
  5 15  1  1
  7 15  1  6
 16  7  1  1
  8  9  2  0
  9 10  2  0
 11  9  1  6
  9 12  1  1
 12 14  1  0
 13 14  2  0
M  CHG  1   1   1
M  END
$$$$
