
     RDKit          3D

 16 17  0  0  0  0  0  0  0  0999 V2000
  614.1630  326.4991  368.1360 N   0  0  0  0  0  0  0  0  0  0  0  0
  615.9492  323.8828  370.9421 C   0  0  0  0  0  0  0  0  0  0  0  0
  615.7195  322.5173  370.8110 C   0  0  0  0  0  0  0  0  0  0  0  0
  616.2626  321.6174  371.7070 C   0  0  0  0  0  0  0  0  0  0  0  0
  616.1161  325.2902  368.9369 C   0  0  0  0  0  0  0  0  0  0  0  0
  615.5804  326.6357  368.5164 C   0  0  0  0  0  0  0  0  0  0  0  0
  613.9068  324.6646  369.7548 C   0  0  0  0  0  0  0  0  0  0  0  0
  618.8612  321.3848  374.4781 O   0  0  0  0  0  0  0  0  0  0  0  0
  617.5773  320.9489  374.0022 S   0  0  1  0  0  0  0  0  0  0  0  0
  617.4678  319.6194  373.4748 O   0  0  0  0  0  0  0  0  0  0  0  0
  616.4106  321.1340  375.2973 C   0  0  0  0  0  0  0  0  0  0  0  0
  617.0348  322.0819  372.7575 C   0  0  0  0  0  0  0  0  0  0  0  0
  616.7651  324.3275  371.9843 C   0  0  0  0  0  0  0  0  0  0  0  0
  617.3093  323.4332  372.8892 C   0  0  0  0  0  0  0  0  0  0  0  0
  615.3361  324.7931  370.0726 N   0  0  0  0  0  0  0  0  0  0  0  0
  613.3486  325.9839  369.2576 C   0  0  0  0  0  0  0  0  0  0  0  0
  1  6  1  6
  1 16  1  0
  2  3  2  0
  2 13  1  0
  2 15  1  0
  3  4  1  0
  4 12  2  0
  6  5  1  1
  5 15  1  1
  7 15  1  6
 16  7  1  1
  8  9  2  0
  9 10  2  0
 11  9  1  6
  9 12  1  6
 12 14  1  0
 13 14  2  0
M  CHG  1   1   1
M  END
$$$$
