
     RDKit          3D

 16 17  0  0  0  0  0  0  0  0999 V2000
  239.2431 -213.9522  461.1697 N   0  0  0  0  0  0  0  0  0  0  0  0
  241.3202 -217.5669  461.8971 C   0  0  0  0  0  0  0  0  0  0  0  0
  241.5795 -218.3901  460.8064 C   0  0  0  0  0  0  0  0  0  0  0  0
  242.2121 -219.6070  460.9705 C   0  0  0  0  0  0  0  0  0  0  0  0
  241.2864 -215.2661  461.0403 C   0  0  0  0  0  0  0  0  0  0  0  0
  240.6825 -213.9581  461.4867 C   0  0  0  0  0  0  0  0  0  0  0  0
  239.1680 -216.3925  461.4710 C   0  0  0  0  0  0  0  0  0  0  0  0
  242.4642 -222.2915  463.5049 O   0  0  0  0  0  0  0  0  0  0  0  0
  243.2248 -221.6498  462.4687 S   0  0  1  0  0  0  0  0  0  0  0  0
  244.6460 -221.5496  462.6367 O   0  0  0  0  0  0  0  0  0  0  0  0
  242.8976 -222.4641  460.9512 C   0  0  0  0  0  0  0  0  0  0  0  0
  242.5810 -220.0187  462.2394 C   0  0  0  0  0  0  0  0  0  0  0  0
  241.7376 -217.9819  463.1632 C   0  0  0  0  0  0  0  0  0  0  0  0
  242.3676 -219.2014  463.3372 C   0  0  0  0  0  0  0  0  0  0  0  0
  240.6144 -216.3687  461.7314 N   0  0  0  0  0  0  0  0  0  0  0  0
  238.5362 -215.0644  461.8405 C   0  0  0  0  0  0  0  0  0  0  0  0
  1  6  1  6
  1 16  1  0
  2  3  2  0
  2 13  1  0
  2 15  1  0
  3  4  1  0
  4 12  2  0
  6  5  1  1
  5 15  1  1
  7 15  1  6
 16  7  1  1
  8  9  2  0
  9 10  2  0
 11  9  1  6
  9 12  1  6
 12 14  1  0
 13 14  2  0
M  CHG  1   1   1
M  END
$$$$
