
     RDKit          3D

 16 17  0  0  0  0  0  0  0  0999 V2000
  122.3754  -89.9644  667.1872 N   0  0  0  0  0  0  0  0  0  0  0  0
  123.8884  -93.8553  666.4927 C   0  0  0  0  0  0  0  0  0  0  0  0
  123.0319  -94.9307  666.7032 C   0  0  0  0  0  0  0  0  0  0  0  0
  123.4874  -96.2308  666.6019 C   0  0  0  0  0  0  0  0  0  0  0  0
  121.9918  -92.3022  666.6334 C   0  0  0  0  0  0  0  0  0  0  0  0
  121.7345  -90.8745  666.2210 C   0  0  0  0  0  0  0  0  0  0  0  0
  124.1300  -91.6391  667.5985 C   0  0  0  0  0  0  0  0  0  0  0  0
  125.9536  -98.3701  667.6654 O   0  0  0  0  0  0  0  0  0  0  0  0
  125.4375  -98.1218  666.3478 S   0  0  1  0  0  0  0  0  0  0  0  0
  126.3202  -98.3011  665.2311 O   0  0  0  0  0  0  0  0  0  0  0  0
  124.0203  -99.1246  666.1060 C   0  0  0  0  0  0  0  0  0  0  0  0
  124.8172  -96.4664  666.2992 C   0  0  0  0  0  0  0  0  0  0  0  0
  125.2164  -94.1145  666.1476 C   0  0  0  0  0  0  0  0  0  0  0  0
  125.6819  -95.4137  666.0485 C   0  0  0  0  0  0  0  0  0  0  0  0
  123.4362  -92.5415  666.6684 N   0  0  0  0  0  0  0  0  0  0  0  0
  123.8350  -90.1910  667.2584 C   0  0  0  0  0  0  0  0  0  0  0  0
  1  6  1  6
  1 16  1  0
  2  3  2  0
  2 13  1  0
  2 15  1  0
  3  4  1  0
  4 12  2  0
  6  5  1  1
  5 15  1  1
  7 15  1  6
 16  7  1  1
  8  9  2  0
  9 10  2  0
 11  9  1  6
  9 12  1  1
 12 14  1  0
 13 14  2  0
M  CHG  1   1   1
M  END
$$$$
