
     RDKit          3D

 44 48  0  0  0  0  0  0  0  0999 V2000
-16370.720710548.1152-12698.3574 C   0  0  0  0  0  0  0  0  0  0  0  0
-16366.441410548.6016-12698.2939 C   0  0  0  0  0  0  0  0  0  0  0  0
-16366.699210547.0879-12698.2529 C   0  0  1  0  0  0  0  0  0  0  0  0
-16368.695310547.2529-12699.6152 C   0  0  0  0  0  0  0  0  0  0  0  0
-16365.521510549.1016-12697.1094 C   0  0  0  0  0  0  0  0  0  0  0  0
-16364.185510548.3320-12696.8945 C   0  0  0  0  0  0  0  0  0  0  0  0
-16367.175810546.7021-12696.8838 C   0  0  0  0  0  0  0  0  0  0  0  0
-16368.179710546.7080-12695.0000 C   0  0  0  0  0  0  0  0  0  0  0  0
-16363.197310542.7393-12690.5938 C   0  0  0  0  0  0  0  0  0  0  0  0
-16366.386710545.3604-12693.6660 C   0  0  0  0  0  0  0  0  0  0  0  0
-16372.627010545.9346-12694.0918 Cl  0  0  0  0  0  0  0  0  0  0  0  0
-16372.345710549.7168-12695.3242 C   0  0  0  0  0  0  0  0  0  0  0  0
-16372.589810548.5977-12694.5439 C   0  0  0  0  0  0  0  0  0  0  0  0
-16372.255910547.3457-12695.0391 C   0  0  0  0  0  0  0  0  0  0  0  0
-16371.687510547.1895-12696.2832 C   0  0  0  0  0  0  0  0  0  0  0  0
-16371.445310548.3184-12697.0840 C   0  0  0  0  0  0  0  0  0  0  0  0
-16371.775410549.5840-12696.5908 C   0  0  0  0  0  0  0  0  0  0  0  0
-16371.558610550.7607-12697.3740 N   0  0  0  0  0  0  0  0  0  0  0  0
-16371.654310552.0586-12697.0918 C   0  0  0  0  0  0  0  0  0  0  0  0
-16371.502010552.7607-12698.1777 N   0  0  0  0  0  0  0  0  0  0  0  0
-16371.289110551.8584-12699.1670 N   0  0  0  0  0  0  0  0  0  0  0  0
-16371.312510550.6514-12698.7012 N   0  0  0  0  0  0  0  0  0  0  0  0
-16369.431610547.7930-12698.4512 C   0  0  0  0  0  0  0  0  0  0  0  0
-16369.127010547.3389-12700.7686 O   0  0  0  0  0  0  0  0  0  0  0  0
-16367.541010546.5986-12699.3418 N   0  0  0  0  0  0  0  0  0  0  0  0
-16368.259810547.1729-12696.2891 N   0  0  0  0  0  0  0  0  0  0  0  0
-16367.043010545.9473-12694.8330 C   0  0  0  0  0  0  0  0  0  0  0  0
-16366.433610545.9395-12696.0586 N   0  0  0  0  0  0  0  0  0  0  0  0
-16367.125010544.5879-12692.7686 C   0  0  0  0  0  0  0  0  0  0  0  0
-16366.502010543.9238-12691.7285 C   0  0  0  0  0  0  0  0  0  0  0  0
-16365.121110544.0068-12691.5664 C   0  0  0  0  0  0  0  0  0  0  0  0
-16364.378910544.8008-12692.4473 C   0  0  0  0  0  0  0  0  0  0  0  0
-16364.994110545.4932-12693.4873 C   0  0  0  0  0  0  0  0  0  0  0  0
-16364.414110543.3613-12690.5176 N   0  0  0  0  0  0  0  0  0  0  0  0
-16362.574210542.4941-12691.6094 O   0  0  0  0  0  0  0  0  0  0  0  0
-16362.779310542.3994-12689.3584 O   0  0  0  0  0  0  0  0  0  0  0  0
-16363.486310541.2891-12688.7393 C   0  0  0  0  0  0  0  0  0  0  0  0
-16363.560510548.4453-12695.4951 C   0  0  0  0  0  0  0  0  0  0  0  0
-16364.328110547.8047-12694.3311 C   0  0  1  0  0  0  0  0  0  0  0  0
-16364.273410546.3496-12694.3564 N   0  0  0  0  0  0  0  0  0  0  0  0
-16363.839810548.2715-12692.9697 C   0  0  0  0  0  0  0  0  0  0  0  0
-16362.794910548.8193-12692.7832 O   0  0  0  0  0  0  0  0  0  0  0  0
-16364.697310547.9404-12692.0078 O   0  0  0  0  0  0  0  0  0  0  0  0
-16364.443410546.7100-12691.2773 C   0  0  0  0  0  0  0  0  0  0  0  0
  1 16  1  0
  1 23  2  0
  2  3  1  6
  5  2  1  6
  3  7  1  0
  3 25  1  6
  4 23  1  0
  4 24  2  0
  4 25  1  0
  6  5  1  6
  6 38  1  0
  7 26  2  0
  7 28  1  0
  8 26  1  0
  8 27  2  0
  9 34  1  0
  9 35  2  0
  9 36  1  0
 10 27  1  0
 10 29  1  0
 10 33  2  0
 11 14  1  0
 12 13  2  0
 12 17  1  0
 13 14  1  0
 14 15  2  0
 15 16  1  0
 16 17  2  0
 17 18  1  0
 18 19  1  0
 18 22  1  0
 19 20  2  0
 20 21  1  0
 21 22  2  0
 27 28  1  0
 29 30  2  0
 30 31  1  0
 31 32  2  0
 31 34  1  0
 32 33  1  0
 33 40  1  0
 37 36  1  6
 38 39  1  1
 39 40  1  0
 39 41  1  1
 41 42  2  0
 41 43  1  0
 44 43  1  6
M  END
$$$$
