
     RDKit          3D

 44 48  0  0  0  0  0  0  0  0999 V2000
   85.5031   51.9675   17.4136 C   0  0  0  0  0  0  0  0  0  0  0  0
   86.6958   49.3041   16.9721 C   0  0  0  0  0  0  0  0  0  0  0  0
   85.7934   48.9229   15.7891 C   0  0  1  0  0  0  0  0  0  0  0  0
   83.8900   50.1857   16.5843 C   0  0  0  0  0  0  0  0  0  0  0  0
   87.8722   48.2765   17.2034 C   0  0  0  0  0  0  0  0  0  0  0  0
   88.7392   47.9223   15.9541 C   0  0  0  0  0  0  0  0  0  0  0  0
   85.3622   47.4933   15.9365 C   0  0  0  0  0  0  0  0  0  0  0  0
   84.6984   45.6401   16.7645 C   0  0  0  0  0  0  0  0  0  0  0  0
   88.3505   40.2941   12.6191 C   0  0  0  0  0  0  0  0  0  0  0  0
   85.8420   44.0735   15.0172 C   0  0  0  0  0  0  0  0  0  0  0  0
   84.2882   56.9076   16.5849 Cl  0  0  0  0  0  0  0  0  0  0  0  0
   86.6853   54.3383   14.6982 C   0  0  0  0  0  0  0  0  0  0  0  0
   86.0166   55.4976   15.0678 C   0  0  0  0  0  0  0  0  0  0  0  0
   85.1752   55.4725   16.1630 C   0  0  0  0  0  0  0  0  0  0  0  0
   84.9833   54.3214   16.9021 C   0  0  0  0  0  0  0  0  0  0  0  0
   85.6434   53.1396   16.5329 C   0  0  0  0  0  0  0  0  0  0  0  0
   86.4948   53.1592   15.4150 C   0  0  0  0  0  0  0  0  0  0  0  0
   87.1811   51.9760   15.0021 N   0  0  0  0  0  0  0  0  0  0  0  0
   87.0805   50.7028   15.3931 C   0  0  0  0  0  0  0  0  0  0  0  0
   88.0271   49.9977   14.8409 N   0  0  0  0  0  0  0  0  0  0  0  0
   88.7325   50.8669   14.0750 N   0  0  0  0  0  0  0  0  0  0  0  0
   88.2326   52.0614   14.1552 N   0  0  0  0  0  0  0  0  0  0  0  0
   84.3977   51.2234   17.5117 C   0  0  0  0  0  0  0  0  0  0  0  0
   82.8158   49.6008   16.7772 O   0  0  0  0  0  0  0  0  0  0  0  0
   84.6954   49.8604   15.5510 N   0  0  0  0  0  0  0  0  0  0  0  0
   84.6860   46.9983   16.9576 N   0  0  0  0  0  0  0  0  0  0  0  0
   85.3822   45.3297   15.6100 C   0  0  0  0  0  0  0  0  0  0  0  0
   85.7684   46.5332   15.0891 N   0  0  0  0  0  0  0  0  0  0  0  0
   84.9457   43.0122   14.8608 C   0  0  0  0  0  0  0  0  0  0  0  0
   85.3201   41.8610   14.1940 C   0  0  0  0  0  0  0  0  0  0  0  0
   86.6011   41.7495   13.6522 C   0  0  0  0  0  0  0  0  0  0  0  0
   87.5098   42.7963   13.8278 C   0  0  0  0  0  0  0  0  0  0  0  0
   87.1529   43.9530   14.5162 C   0  0  0  0  0  0  0  0  0  0  0  0
   87.0636   40.5956   12.9634 N   0  0  0  0  0  0  0  0  0  0  0  0
   88.8392   39.1837   12.5606 O   0  0  0  0  0  0  0  0  0  0  0  0
   89.0315   41.4297   12.3654 O   0  0  0  0  0  0  0  0  0  0  0  0
   90.4680   41.3627   12.5687 C   0  0  0  0  0  0  0  0  0  0  0  0
   89.5116   46.5936   16.0219 C   0  0  0  0  0  0  0  0  0  0  0  0
   88.6769   45.3016   16.0490 C   0  0  1  0  0  0  0  0  0  0  0  0
   88.0718   45.0023   14.7590 N   0  0  0  0  0  0  0  0  0  0  0  0
   89.4834   44.0877   16.4838 C   0  0  0  0  0  0  0  0  0  0  0  0
   90.6777   44.0740   16.5897 O   0  0  0  0  0  0  0  0  0  0  0  0
   88.7022   43.0288   16.6681 O   0  0  0  0  0  0  0  0  0  0  0  0
   89.3435   41.7880   17.0724 C   0  0  0  0  0  0  0  0  0  0  0  0
  1 16  1  0
  1 23  2  0
  2  3  1  6
  5  2  1  6
  3  7  1  0
  3 25  1  1
  4 23  1  0
  4 24  2  0
  4 25  1  0
  6  5  1  6
  6 38  1  0
  7 26  2  0
  7 28  1  0
  8 26  1  0
  8 27  2  0
  9 34  1  0
  9 35  2  0
  9 36  1  0
 10 27  1  0
 10 29  1  0
 10 33  2  0
 11 14  1  0
 12 13  2  0
 12 17  1  0
 13 14  1  0
 14 15  2  0
 15 16  1  0
 16 17  2  0
 17 18  1  0
 18 19  1  0
 18 22  1  0
 19 20  2  0
 20 21  1  0
 21 22  2  0
 27 28  1  0
 29 30  2  0
 30 31  1  0
 31 32  2  0
 31 34  1  0
 32 33  1  0
 33 40  1  0
 37 36  1  6
 38 39  1  1
 39 40  1  0
 39 41  1  6
 41 42  2  0
 41 43  1  0
 44 43  1  6
M  END
$$$$
