
     RDKit          3D

 44 48  0  0  0  0  0  0  0  0999 V2000
 -586.2993-15069.210015403.7188 C   0  0  0  0  0  0  0  0  0  0  0  0
 -586.5646-15071.764615406.5889 C   0  0  0  0  0  0  0  0  0  0  0  0
 -586.3055-15072.695315405.3936 C   0  0  1  0  0  0  0  0  0  0  0  0
 -585.1974-15071.500015403.6064 C   0  0  0  0  0  0  0  0  0  0  0  0
 -587.8727-15072.142615407.3877 C   0  0  0  0  0  0  0  0  0  0  0  0
 -588.0117-15073.635715407.8271 C   0  0  0  0  0  0  0  0  0  0  0  0
 -587.5498-15072.788115404.5605 C   0  0  0  0  0  0  0  0  0  0  0  0
 -589.3415-15072.287115403.5107 C   0  0  0  0  0  0  0  0  0  0  0  0
 -594.3296-15078.011715404.1729 C   0  0  0  0  0  0  0  0  0  0  0  0
 -590.4965-15074.625015403.7109 C   0  0  0  0  0  0  0  0  0  0  0  0
 -588.1659-15064.407215403.8252 Cl  0  0  0  0  0  0  0  0  0  0  0  0
 -589.8922-15068.002915403.8750 C   0  0  0  0  0  0  0  0  0  0  0  0
 -589.6971-15066.630915403.8418 C   0  0  0  0  0  0  0  0  0  0  0  0
 -588.4099-15066.131815403.8027 C   0  0  0  0  0  0  0  0  0  0  0  0
 -587.3096-15066.967815403.7969 C   0  0  0  0  0  0  0  0  0  0  0  0
 -587.4913-15068.358415403.8467 C   0  0  0  0  0  0  0  0  0  0  0  0
 -588.7994-15068.869115403.8877 C   0  0  0  0  0  0  0  0  0  0  0  0
 -589.0279-15070.279315403.9453 N   0  0  0  0  0  0  0  0  0  0  0  0
 -589.4727-15071.141615403.0371 C   0  0  0  0  0  0  0  0  0  0  0  0
 -589.6667-15072.305715403.5957 N   0  0  0  0  0  0  0  0  0  0  0  0
 -589.3208-15072.148415404.8955 N   0  0  0  0  0  0  0  0  0  0  0  0
 -588.9277-15070.934615405.1201 N   0  0  0  0  0  0  0  0  0  0  0  0
 -586.3296-15070.544915403.6611 C   0  0  0  0  0  0  0  0  0  0  0  0
 -584.4208-15071.544915402.6416 O   0  0  0  0  0  0  0  0  0  0  0  0
 -585.0975-15072.369115404.6357 N   0  0  0  0  0  0  0  0  0  0  0  0
 -588.1606-15071.770515403.9795 N   0  0  0  0  0  0  0  0  0  0  0  0
 -589.4251-15073.630915403.8105 C   0  0  0  0  0  0  0  0  0  0  0  0
 -588.2557-15073.926815404.4551 N   0  0  0  0  0  0  0  0  0  0  0  0
 -591.1899-15074.772515402.5059 C   0  0  0  0  0  0  0  0  0  0  0  0
 -592.1203-15075.781215402.3438 C   0  0  0  0  0  0  0  0  0  0  0  0
 -592.3692-15076.674815403.3828 C   0  0  0  0  0  0  0  0  0  0  0  0
 -591.6981-15076.516615404.5996 C   0  0  0  0  0  0  0  0  0  0  0  0
 -590.7740-15075.489315404.7832 C   0  0  0  0  0  0  0  0  0  0  0  0
 -593.3168-15077.733415403.2969 N   0  0  0  0  0  0  0  0  0  0  0  0
 -594.9952-15079.028315404.1992 O   0  0  0  0  0  0  0  0  0  0  0  0
 -594.5100-15076.969715405.0078 O   0  0  0  0  0  0  0  0  0  0  0  0
 -595.0529-15075.765615404.4053 C   0  0  0  0  0  0  0  0  0  0  0  0
 -589.4402-15074.123015408.1221 C   0  0  0  0  0  0  0  0  0  0  0  0
 -590.4189-15074.176815406.9365 C   0  0  1  0  0  0  0  0  0  0  0  0
 -590.1252-15075.270515406.0215 N   0  0  0  0  0  0  0  0  0  0  0  0
 -591.8694-15074.306615407.3750 C   0  0  0  0  0  0  0  0  0  0  0  0
 -592.3580-15073.690415408.2803 O   0  0  0  0  0  0  0  0  0  0  0  0
 -592.5067-15075.236315406.6699 O   0  0  0  0  0  0  0  0  0  0  0  0
 -593.0715-15076.356415407.3994 C   0  0  0  0  0  0  0  0  0  0  0  0
  1 16  1  0
  1 23  2  0
  2  3  1  6
  5  2  1  6
  3  7  1  0
  3 25  1  6
  4 23  1  0
  4 24  2  0
  4 25  1  0
  6  5  1  6
  6 38  1  0
  7 26  2  0
  7 28  1  0
  8 26  1  0
  8 27  2  0
  9 34  1  0
  9 35  2  0
  9 36  1  0
 10 27  1  0
 10 29  1  0
 10 33  2  0
 11 14  1  0
 12 13  2  0
 12 17  1  0
 13 14  1  0
 14 15  2  0
 15 16  1  0
 16 17  2  0
 17 18  1  0
 18 19  1  0
 18 22  1  0
 19 20  2  0
 20 21  1  0
 21 22  2  0
 27 28  1  0
 29 30  2  0
 30 31  1  0
 31 32  2  0
 31 34  1  0
 32 33  1  0
 33 40  1  0
 37 36  1  6
 38 39  1  1
 39 40  1  0
 39 41  1  1
 41 42  2  0
 41 43  1  0
 44 43  1  6
M  END
$$$$
