
     RDKit          3D

 44 48  0  0  0  0  0  0  0  0999 V2000
 -194.5383   76.5317  293.0195 C   0  0  0  0  0  0  0  0  0  0  0  0
 -196.7710   77.3480  293.9777 C   0  0  0  0  0  0  0  0  0  0  0  0
 -196.1489   77.2006  295.3743 C   0  0  1  0  0  0  0  0  0  0  0  0
 -193.9426   78.0905  294.9379 C   0  0  0  0  0  0  0  0  0  0  0  0
 -197.9187   76.2990  293.7026 C   0  0  0  0  0  0  0  0  0  0  0  0
 -199.0389   76.1971  294.7855 C   0  0  0  0  0  0  0  0  0  0  0  0
 -195.7601   75.7682  295.5939 C   0  0  0  0  0  0  0  0  0  0  0  0
 -195.0225   73.7872  295.2898 C   0  0  0  0  0  0  0  0  0  0  0  0
 -199.6549   69.5367  299.7555 C   0  0  0  0  0  0  0  0  0  0  0  0
 -196.5690   72.5935  297.0213 C   0  0  0  0  0  0  0  0  0  0  0  0
 -190.8342   73.0308  292.2504 Cl  0  0  0  0  0  0  0  0  0  0  0  0
 -193.9258   73.2187  294.7631 C   0  0  0  0  0  0  0  0  0  0  0  0
 -192.7713   72.8023  294.1140 C   0  0  0  0  0  0  0  0  0  0  0  0
 -192.2422   73.5858  293.1068 C   0  0  0  0  0  0  0  0  0  0  0  0
 -192.8330   74.7764  292.7301 C   0  0  0  0  0  0  0  0  0  0  0  0
 -194.0066   75.2035  293.3696 C   0  0  0  0  0  0  0  0  0  0  0  0
 -194.5519   74.4056  294.3898 C   0  0  0  0  0  0  0  0  0  0  0  0
 -195.7491   74.8015  295.0620 N   0  0  0  0  0  0  0  0  0  0  0  0
 -196.1905   75.9935  295.4718 C   0  0  0  0  0  0  0  0  0  0  0  0
 -197.2724   75.8407  296.1820 N   0  0  0  0  0  0  0  0  0  0  0  0
 -197.5111   74.5058  296.2041 N   0  0  0  0  0  0  0  0  0  0  0  0
 -196.6069   73.8654  295.5288 N   0  0  0  0  0  0  0  0  0  0  0  0
 -194.0839   77.6841  293.5203 C   0  0  0  0  0  0  0  0  0  0  0  0
 -192.8365   78.2921  295.4565 O   0  0  0  0  0  0  0  0  0  0  0  0
 -195.0831   78.1628  295.6564 N   0  0  0  0  0  0  0  0  0  0  0  0
 -194.9108   75.0820  294.8504 N   0  0  0  0  0  0  0  0  0  0  0  0
 -195.9423   73.7091  296.3119 C   0  0  0  0  0  0  0  0  0  0  0  0
 -196.3738   74.9922  296.5027 N   0  0  0  0  0  0  0  0  0  0  0  0
 -195.7719   71.5797  297.5605 C   0  0  0  0  0  0  0  0  0  0  0  0
 -196.3258   70.5811  298.3389 C   0  0  0  0  0  0  0  0  0  0  0  0
 -197.6945   70.5812  298.6104 C   0  0  0  0  0  0  0  0  0  0  0  0
 -198.5005   71.5772  298.0528 C   0  0  0  0  0  0  0  0  0  0  0  0
 -197.9590   72.5770  297.2489 C   0  0  0  0  0  0  0  0  0  0  0  0
 -198.3392   69.5846  299.3919 N   0  0  0  0  0  0  0  0  0  0  0  0
 -200.6076   69.7954  299.0479 O   0  0  0  0  0  0  0  0  0  0  0  0
 -199.7562   69.1729  301.0498 O   0  0  0  0  0  0  0  0  0  0  0  0
 -200.4283   67.9099  301.2994 C   0  0  0  0  0  0  0  0  0  0  0  0
 -199.8388   74.8831  294.8092 C   0  0  0  0  0  0  0  0  0  0  0  0
 -199.0741   73.6076  295.2031 C   0  0  1  0  0  0  0  0  0  0  0  0
 -198.7611   73.5624  296.6243 N   0  0  0  0  0  0  0  0  0  0  0  0
 -199.8266   72.3352  294.8459 C   0  0  0  0  0  0  0  0  0  0  0  0
 -200.7394   72.2865  294.0698 O   0  0  0  0  0  0  0  0  0  0  0  0
 -199.3861   71.2987  295.5510 O   0  0  0  0  0  0  0  0  0  0  0  0
 -198.1512   71.4755  296.2982 C   0  0  0  0  0  0  0  0  0  0  0  0
  1 16  1  0
  1 23  2  0
  2  3  1  6
  5  2  1  6
  3  7  1  0
  3 25  1  6
  4 23  1  0
  4 24  2  0
  4 25  1  0
  6  5  1  6
  6 38  1  0
  7 26  2  0
  7 28  1  0
  8 26  1  0
  8 27  2  0
  9 34  1  0
  9 35  2  0
  9 36  1  0
 10 27  1  0
 10 29  1  0
 10 33  2  0
 11 14  1  0
 12 13  2  0
 12 17  1  0
 13 14  1  0
 14 15  2  0
 15 16  1  0
 16 17  2  0
 17 18  1  0
 18 19  1  0
 18 22  1  0
 19 20  2  0
 20 21  1  0
 21 22  2  0
 27 28  1  0
 29 30  2  0
 30 31  1  0
 31 32  2  0
 31 34  1  0
 32 33  1  0
 33 40  1  0
 37 36  1  6
 38 39  1  1
 39 40  1  0
 39 41  1  1
 41 42  2  0
 41 43  1  0
 44 43  1  6
M  END
$$$$
