
     RDKit          3D

 44 48  0  0  0  0  0  0  0  0999 V2000
   30.7412 -101.5188   21.1029 C   0  0  0  0  0  0  0  0  0  0  0  0
   32.2805  -96.6786   22.9481 C   0  0  0  0  0  0  0  0  0  0  0  0
   31.1416  -97.6705   23.2277 C   0  0  1  0  0  0  0  0  0  0  0  0
   30.8127 -100.0664   23.1886 C   0  0  0  0  0  0  0  0  0  0  0  0
   32.0723  -95.2866   23.6639 C   0  0  0  0  0  0  0  0  0  0  0  0
   31.7590  -95.3331   25.1928 C   0  0  0  0  0  0  0  0  0  0  0  0
   29.8264  -97.0060   22.9445 C   0  0  0  0  0  0  0  0  0  0  0  0
   28.2916  -95.8268   22.0421 C   0  0  0  0  0  0  0  0  0  0  0  0
   23.8162  -92.5450   27.2217 C   0  0  0  0  0  0  0  0  0  0  0  0
   26.9484  -95.3157   24.2215 C   0  0  0  0  0  0  0  0  0  0  0  0
   26.7689 -104.7395   20.4589 Cl  0  0  0  0  0  0  0  0  0  0  0  0
   30.0807 -104.0426   18.3487 C   0  0  0  0  0  0  0  0  0  0  0  0
   28.8482 -104.5385   18.7522 C   0  0  0  0  0  0  0  0  0  0  0  0
   28.2809 -104.0697   19.9211 C   0  0  0  0  0  0  0  0  0  0  0  0
   28.9092 -103.1167   20.6991 C   0  0  0  0  0  0  0  0  0  0  0  0
   30.1605 -102.6154   20.3096 C   0  0  0  0  0  0  0  0  0  0  0  0
   30.7443 -103.0951   19.1247 C   0  0  0  0  0  0  0  0  0  0  0  0
   32.0199 -102.6151   18.6957 N   0  0  0  0  0  0  0  0  0  0  0  0
   32.4251 -101.4167   18.2672 C   0  0  0  0  0  0  0  0  0  0  0  0
   33.6521 -101.4965   17.8355 N   0  0  0  0  0  0  0  0  0  0  0  0
   34.0194 -102.7902   18.0117 N   0  0  0  0  0  0  0  0  0  0  0  0
   33.0506 -103.4764   18.5349 N   0  0  0  0  0  0  0  0  0  0  0  0
   30.2951 -101.1347   22.3024 C   0  0  0  0  0  0  0  0  0  0  0  0
   30.7373 -100.1420   24.4222 O   0  0  0  0  0  0  0  0  0  0  0  0
   31.3106  -98.9705   22.5776 N   0  0  0  0  0  0  0  0  0  0  0  0
   29.4586  -96.4993   21.7815 N   0  0  0  0  0  0  0  0  0  0  0  0
   27.9609  -95.9457   23.3738 C   0  0  0  0  0  0  0  0  0  0  0  0
   28.9425  -96.7270   23.9170 N   0  0  0  0  0  0  0  0  0  0  0  0
   25.6115  -95.3056   23.8132 C   0  0  0  0  0  0  0  0  0  0  0  0
   24.6193  -94.8278   24.6481 C   0  0  0  0  0  0  0  0  0  0  0  0
   24.9402  -94.3606   25.9232 C   0  0  0  0  0  0  0  0  0  0  0  0
   26.2777  -94.3441   26.3271 C   0  0  0  0  0  0  0  0  0  0  0  0
   27.2901  -94.8022   25.4879 C   0  0  0  0  0  0  0  0  0  0  0  0
   23.9793  -93.8446   26.8343 N   0  0  0  0  0  0  0  0  0  0  0  0
   24.5879  -91.6299   27.0163 O   0  0  0  0  0  0  0  0  0  0  0  0
   22.6590  -92.4146   27.9010 O   0  0  0  0  0  0  0  0  0  0  0  0
   21.5030  -93.0640   27.3085 C   0  0  0  0  0  0  0  0  0  0  0  0
   31.0606  -94.0934   25.7778 C   0  0  0  0  0  0  0  0  0  0  0  0
   29.6277  -93.8073   25.2966 C   0  0  1  0  0  0  0  0  0  0  0  0
   28.6576  -94.7415   25.8496 N   0  0  0  0  0  0  0  0  0  0  0  0
   29.1651  -92.3969   25.6279 C   0  0  0  0  0  0  0  0  0  0  0  0
   29.5091  -91.7851   26.6001 O   0  0  0  0  0  0  0  0  0  0  0  0
   28.2828  -91.9557   24.7378 O   0  0  0  0  0  0  0  0  0  0  0  0
   26.9114  -91.7789   25.1878 C   0  0  0  0  0  0  0  0  0  0  0  0
  1 16  1  0
  1 23  2  0
  2  3  1  6
  5  2  1  6
  3  7  1  0
  3 25  1  6
  4 23  1  0
  4 24  2  0
  4 25  1  0
  6  5  1  6
  6 38  1  0
  7 26  2  0
  7 28  1  0
  8 26  1  0
  8 27  2  0
  9 34  1  0
  9 35  2  0
  9 36  1  0
 10 27  1  0
 10 29  1  0
 10 33  2  0
 11 14  1  0
 12 13  2  0
 12 17  1  0
 13 14  1  0
 14 15  2  0
 15 16  1  0
 16 17  2  0
 17 18  1  0
 18 19  1  0
 18 22  1  0
 19 20  2  0
 20 21  1  0
 21 22  2  0
 27 28  1  0
 29 30  2  0
 30 31  1  0
 31 32  2  0
 31 34  1  0
 32 33  1  0
 33 40  1  0
 37 36  1  6
 38 39  1  1
 39 40  1  0
 39 41  1  1
 41 42  2  0
 41 43  1  0
 44 43  1  6
M  END
$$$$
