
     RDKit          3D

 44 48  0  0  0  0  0  0  0  0999 V2000
  -94.2440   10.0866   78.8593 C   0  0  0  0  0  0  0  0  0  0  0  0
  -97.5507    8.9192   82.6406 C   0  0  0  0  0  0  0  0  0  0  0  0
  -97.7535   10.1776   81.7836 C   0  0  1  0  0  0  0  0  0  0  0  0
  -95.7670   11.0027   80.6776 C   0  0  0  0  0  0  0  0  0  0  0  0
  -98.5047    8.8720   83.8979 C   0  0  0  0  0  0  0  0  0  0  0  0
 -100.0247    9.1004   83.6239 C   0  0  0  0  0  0  0  0  0  0  0  0
  -97.6960   11.3906   82.6648 C   0  0  0  0  0  0  0  0  0  0  0  0
  -97.1349   12.7778   84.1886 C   0  0  0  0  0  0  0  0  0  0  0  0
 -103.0636   17.5611   85.2643 C   0  0  0  0  0  0  0  0  0  0  0  0
  -99.4731   13.9002   84.4855 C   0  0  0  0  0  0  0  0  0  0  0  0
  -92.7698    5.7174   81.1623 Cl  0  0  0  0  0  0  0  0  0  0  0  0
  -90.8042    8.9985   80.0321 C   0  0  0  0  0  0  0  0  0  0  0  0
  -91.0941    7.7317   80.5207 C   0  0  0  0  0  0  0  0  0  0  0  0
  -92.3983    7.2775   80.4900 C   0  0  0  0  0  0  0  0  0  0  0  0
  -93.4229    8.0529   79.9829 C   0  0  0  0  0  0  0  0  0  0  0  0
  -93.1463    9.3397   79.4968 C   0  0  0  0  0  0  0  0  0  0  0  0
  -91.8219    9.8081   79.5328 C   0  0  0  0  0  0  0  0  0  0  0  0
  -91.4988   11.1147   79.0531 N   0  0  0  0  0  0  0  0  0  0  0  0
  -91.8782   12.3315   79.4520 C   0  0  0  0  0  0  0  0  0  0  0  0
  -91.4471   13.2250   78.6069 N   0  0  0  0  0  0  0  0  0  0  0  0
  -90.7702   12.5340   77.6563 N   0  0  0  0  0  0  0  0  0  0  0  0
  -90.7856   11.2623   77.9131 N   0  0  0  0  0  0  0  0  0  0  0  0
  -94.9381   11.0629   79.4513 C   0  0  0  0  0  0  0  0  0  0  0  0
  -95.4271   11.5622   81.7286 O   0  0  0  0  0  0  0  0  0  0  0  0
  -96.8826   10.2457   80.6096 N   0  0  0  0  0  0  0  0  0  0  0  0
  -96.6691   11.7434   83.4171 N   0  0  0  0  0  0  0  0  0  0  0  0
  -98.4505   13.0456   83.8815 C   0  0  0  0  0  0  0  0  0  0  0  0
  -98.7715   12.1645   82.8867 N   0  0  0  0  0  0  0  0  0  0  0  0
  -99.1847   15.2413   84.7547 C   0  0  0  0  0  0  0  0  0  0  0  0
 -100.1675   16.0998   85.2098 C   0  0  0  0  0  0  0  0  0  0  0  0
 -101.4717   15.6389   85.3928 C   0  0  0  0  0  0  0  0  0  0  0  0
 -101.7602   14.2934   85.1502 C   0  0  0  0  0  0  0  0  0  0  0  0
 -100.7749   13.4123   84.7122 C   0  0  0  0  0  0  0  0  0  0  0  0
 -102.5331   16.4562   85.8672 N   0  0  0  0  0  0  0  0  0  0  0  0
 -103.8669   18.3313   85.7508 O   0  0  0  0  0  0  0  0  0  0  0  0
 -102.5770   17.6738   84.0119 O   0  0  0  0  0  0  0  0  0  0  0  0
 -101.5639   16.7025   83.6390 C   0  0  0  0  0  0  0  0  0  0  0  0
 -100.8656    9.5675   84.8247 C   0  0  0  0  0  0  0  0  0  0  0  0
 -100.5597   10.9656   85.3891 C   0  0  1  0  0  0  0  0  0  0  0  0
 -101.0268   12.0330   84.5160 N   0  0  0  0  0  0  0  0  0  0  0  0
 -101.1603   11.1887   86.7684 C   0  0  0  0  0  0  0  0  0  0  0  0
 -101.3132   10.3246   87.5855 O   0  0  0  0  0  0  0  0  0  0  0  0
 -101.5525   12.4483   86.9271 O   0  0  0  0  0  0  0  0  0  0  0  0
 -102.9558   12.6777   87.2313 C   0  0  0  0  0  0  0  0  0  0  0  0
  1 16  1  0
  1 23  2  0
  2  3  1  6
  5  2  1  6
  3  7  1  0
  3 25  1  6
  4 23  1  0
  4 24  2  0
  4 25  1  0
  6  5  1  6
  6 38  1  0
  7 26  2  0
  7 28  1  0
  8 26  1  0
  8 27  2  0
  9 34  1  0
  9 35  2  0
  9 36  1  0
 10 27  1  0
 10 29  1  0
 10 33  2  0
 11 14  1  0
 12 13  2  0
 12 17  1  0
 13 14  1  0
 14 15  2  0
 15 16  1  0
 16 17  2  0
 17 18  1  0
 18 19  1  0
 18 22  1  0
 19 20  2  0
 20 21  1  0
 21 22  2  0
 27 28  1  0
 29 30  2  0
 30 31  1  0
 31 32  2  0
 31 34  1  0
 32 33  1  0
 33 40  1  0
 37 36  1  6
 38 39  1  1
 39 40  1  0
 39 41  1  1
 41 42  2  0
 41 43  1  0
 44 43  1  6
M  END
$$$$
