
     RDKit          3D

 44 48  0  0  0  0  0  0  0  0999 V2000
   86.3937    6.5199   12.1035 C   0  0  0  0  0  0  0  0  0  0  0  0
   88.5979    8.7565   15.5797 C   0  0  0  0  0  0  0  0  0  0  0  0
   87.7683    9.8246   14.8515 C   0  0  1  0  0  0  0  0  0  0  0  0
   86.3342    8.0001   14.1700 C   0  0  0  0  0  0  0  0  0  0  0  0
   89.9619    9.3173   16.1441 C   0  0  0  0  0  0  0  0  0  0  0  0
   89.8736   10.6151   17.0076 C   0  0  0  0  0  0  0  0  0  0  0  0
   88.6328   10.5171   13.8392 C   0  0  0  0  0  0  0  0  0  0  0  0
   90.0733   10.8982   12.3094 C   0  0  0  0  0  0  0  0  0  0  0  0
   92.5992   17.9594   14.1369 C   0  0  0  0  0  0  0  0  0  0  0  0
   90.6485   13.3476   13.0054 C   0  0  0  0  0  0  0  0  0  0  0  0
   89.8904    9.4925    9.7575 Cl  0  0  0  0  0  0  0  0  0  0  0  0
   88.5712    5.7893    9.0842 C   0  0  0  0  0  0  0  0  0  0  0  0
   89.2929    6.9726    9.0023 C   0  0  0  0  0  0  0  0  0  0  0  0
   89.0319    7.9871    9.9026 C   0  0  0  0  0  0  0  0  0  0  0  0
   88.0703    7.8531   10.8853 C   0  0  0  0  0  0  0  0  0  0  0  0
   87.3252    6.6674   10.9723 C   0  0  0  0  0  0  0  0  0  0  0  0
   87.5829    5.6355   10.0537 C   0  0  0  0  0  0  0  0  0  0  0  0
   86.8424    4.4146   10.1041 N   0  0  0  0  0  0  0  0  0  0  0  0
   86.8044    3.3588    9.2870 C   0  0  0  0  0  0  0  0  0  0  0  0
   85.8567    2.5469    9.6622 N   0  0  0  0  0  0  0  0  0  0  0  0
   85.2949    3.1196   10.7558 N   0  0  0  0  0  0  0  0  0  0  0  0
   85.8808    4.2418   11.0399 N   0  0  0  0  0  0  0  0  0  0  0  0
   85.9154    7.5365   12.8267 C   0  0  0  0  0  0  0  0  0  0  0  0
   86.4670    7.2201   15.1225 O   0  0  0  0  0  0  0  0  0  0  0  0
   86.4972    9.3317   14.3199 N   0  0  0  0  0  0  0  0  0  0  0  0
   89.2539    9.9299   12.8321 N   0  0  0  0  0  0  0  0  0  0  0  0
   89.9274   12.0745   13.0106 C   0  0  0  0  0  0  0  0  0  0  0  0
   88.9812   11.8088   13.9610 N   0  0  0  0  0  0  0  0  0  0  0  0
   90.8770   14.0096   11.7956 C   0  0  0  0  0  0  0  0  0  0  0  0
   91.4455   15.2691   11.7734 C   0  0  0  0  0  0  0  0  0  0  0  0
   91.7867   15.9057   12.9673 C   0  0  0  0  0  0  0  0  0  0  0  0
   91.5846   15.2385   14.1782 C   0  0  0  0  0  0  0  0  0  0  0  0
   91.0328   13.9605   14.2140 C   0  0  0  0  0  0  0  0  0  0  0  0
   92.3840   17.1939   13.0263 N   0  0  0  0  0  0  0  0  0  0  0  0
   93.6113   18.5766   14.4013 O   0  0  0  0  0  0  0  0  0  0  0  0
   91.5127   17.9199   14.9341 O   0  0  0  0  0  0  0  0  0  0  0  0
   91.5011   16.8659   15.9332 C   0  0  0  0  0  0  0  0  0  0  0  0
   91.1661   11.4419   17.1196 C   0  0  0  0  0  0  0  0  0  0  0  0
   91.6855   12.1033   15.8313 C   0  0  1  0  0  0  0  0  0  0  0  0
   90.8725   13.2396   15.4219 N   0  0  0  0  0  0  0  0  0  0  0  0
   93.1267   12.5739   15.9499 C   0  0  0  0  0  0  0  0  0  0  0  0
   93.6031   13.0442   16.9448 O   0  0  0  0  0  0  0  0  0  0  0  0
   93.7703   12.4572   14.7934 O   0  0  0  0  0  0  0  0  0  0  0  0
   92.9688   12.4547   13.5802 C   0  0  0  0  0  0  0  0  0  0  0  0
  1 16  1  0
  1 23  2  0
  2  3  1  6
  5  2  1  6
  3  7  1  0
  3 25  1  6
  4 23  1  0
  4 24  2  0
  4 25  1  0
  6  5  1  6
  6 38  1  0
  7 26  2  0
  7 28  1  0
  8 26  1  0
  8 27  2  0
  9 34  1  0
  9 35  2  0
  9 36  1  0
 10 27  1  0
 10 29  1  0
 10 33  2  0
 11 14  1  0
 12 13  2  0
 12 17  1  0
 13 14  1  0
 14 15  2  0
 15 16  1  0
 16 17  2  0
 17 18  1  0
 18 19  1  0
 18 22  1  0
 19 20  2  0
 20 21  1  0
 21 22  2  0
 27 28  1  0
 29 30  2  0
 30 31  1  0
 31 32  2  0
 31 34  1  0
 32 33  1  0
 33 40  1  0
 37 36  1  6
 38 39  1  1
 39 40  1  0
 39 41  1  1
 41 42  2  0
 41 43  1  0
 44 43  1  6
M  END
$$$$
