
     RDKit          3D

 44 48  0  0  0  0  0  0  0  0999 V2000
   64.9755  -71.3665 -423.7690 C   0  0  0  0  0  0  0  0  0  0  0  0
   69.1256  -72.6315 -426.9038 C   0  0  0  0  0  0  0  0  0  0  0  0
   68.8169  -71.4961 -425.9165 C   0  0  1  0  0  0  0  0  0  0  0  0
   66.4069  -71.6886 -425.8456 C   0  0  0  0  0  0  0  0  0  0  0  0
   70.4729  -72.4072 -427.6961 C   0  0  0  0  0  0  0  0  0  0  0  0
   71.7353  -72.0786 -426.8382 C   0  0  0  0  0  0  0  0  0  0  0  0
   68.9177  -70.1797 -426.6295 C   0  0  0  0  0  0  0  0  0  0  0  0
   68.7687  -68.6468 -428.1089 C   0  0  0  0  0  0  0  0  0  0  0  0
   74.8322  -64.0827 -428.1196 C   0  0  0  0  0  0  0  0  0  0  0  0
   70.8666  -67.2782 -427.3736 C   0  0  0  0  0  0  0  0  0  0  0  0
   69.2143  -73.7273 -422.0295 Cl  0  0  0  0  0  0  0  0  0  0  0  0
   66.0208  -72.1751 -420.2131 C   0  0  0  0  0  0  0  0  0  0  0  0
   67.2545  -72.7692 -420.4424 C   0  0  0  0  0  0  0  0  0  0  0  0
   67.6991  -72.9240 -421.7412 C   0  0  0  0  0  0  0  0  0  0  0  0
   66.9465  -72.5002 -422.8191 C   0  0  0  0  0  0  0  0  0  0  0  0
   65.6926  -71.9089 -422.6025 C   0  0  0  0  0  0  0  0  0  0  0  0
   65.2336  -71.7561 -421.2831 C   0  0  0  0  0  0  0  0  0  0  0  0
   63.9600  -71.1645 -421.0195 N   0  0  0  0  0  0  0  0  0  0  0  0
   62.7247  -71.6723 -421.0080 C   0  0  0  0  0  0  0  0  0  0  0  0
   61.8561  -70.7110 -420.8674 N   0  0  0  0  0  0  0  0  0  0  0  0
   62.5832  -69.5694 -420.7815 N   0  0  0  0  0  0  0  0  0  0  0  0
   63.8526  -69.8249 -420.8646 N   0  0  0  0  0  0  0  0  0  0  0  0
   65.1727  -71.7632 -425.0295 C   0  0  0  0  0  0  0  0  0  0  0  0
   66.3778  -71.6976 -427.0833 O   0  0  0  0  0  0  0  0  0  0  0  0
   67.5738  -71.6800 -425.1668 N   0  0  0  0  0  0  0  0  0  0  0  0
   68.2025  -69.8206 -427.6804 N   0  0  0  0  0  0  0  0  0  0  0  0
   69.8255  -68.3033 -427.2953 C   0  0  0  0  0  0  0  0  0  0  0  0
   69.8777  -69.2842 -426.3445 N   0  0  0  0  0  0  0  0  0  0  0  0
   70.5111  -65.9455 -427.6008 C   0  0  0  0  0  0  0  0  0  0  0  0
   71.4601  -64.9418 -427.5573 C   0  0  0  0  0  0  0  0  0  0  0  0
   72.7909  -65.2467 -427.2691 C   0  0  0  0  0  0  0  0  0  0  0  0
   73.1569  -66.5799 -427.0666 C   0  0  0  0  0  0  0  0  0  0  0  0
   72.2151  -67.6036 -427.1290 C   0  0  0  0  0  0  0  0  0  0  0  0
   73.8250  -64.2733 -427.2170 N   0  0  0  0  0  0  0  0  0  0  0  0
   75.3738  -64.9411 -428.7867 O   0  0  0  0  0  0  0  0  0  0  0  0
   75.1689  -62.7777 -428.1568 O   0  0  0  0  0  0  0  0  0  0  0  0
   75.7481  -62.2407 -426.9380 C   0  0  0  0  0  0  0  0  0  0  0  0
   72.8848  -71.3665 -427.5719 C   0  0  0  0  0  0  0  0  0  0  0  0
   72.6144  -69.9368 -428.0714 C   0  0  1  0  0  0  0  0  0  0  0  0
   72.5695  -68.9669 -426.9864 N   0  0  0  0  0  0  0  0  0  0  0  0
   73.6438  -69.4619 -429.0851 C   0  0  0  0  0  0  0  0  0  0  0  0
   73.5131  -68.4895 -429.7745 O   0  0  0  0  0  0  0  0  0  0  0  0
   74.6750  -70.2969 -429.1546 O   0  0  0  0  0  0  0  0  0  0  0  0
   75.1455  -70.8825 -427.9096 C   0  0  0  0  0  0  0  0  0  0  0  0
  1 16  1  0
  1 23  2  0
  2  3  1  6
  5  2  1  6
  3  7  1  0
  3 25  1  6
  4 23  1  0
  4 24  2  0
  4 25  1  0
  6  5  1  6
  6 38  1  0
  7 26  2  0
  7 28  1  0
  8 26  1  0
  8 27  2  0
  9 34  1  0
  9 35  2  0
  9 36  1  0
 10 27  1  0
 10 29  1  0
 10 33  2  0
 11 14  1  0
 12 13  2  0
 12 17  1  0
 13 14  1  0
 14 15  2  0
 15 16  1  0
 16 17  2  0
 17 18  1  0
 18 19  1  0
 18 22  1  0
 19 20  2  0
 20 21  1  0
 21 22  2  0
 27 28  1  0
 29 30  2  0
 30 31  1  0
 31 32  2  0
 31 34  1  0
 32 33  1  0
 33 40  1  0
 37 36  1  6
 38 39  1  1
 39 40  1  0
 39 41  1  6
 41 42  2  0
 41 43  1  0
 44 43  1  6
M  END
$$$$
