
     RDKit          3D

 44 48  0  0  0  0  0  0  0  0999 V2000
   67.0445   42.1194  -30.9940 C   0  0  0  0  0  0  0  0  0  0  0  0
   70.2058   38.2751  -28.0899 C   0  0  0  0  0  0  0  0  0  0  0  0
   68.7996   38.2538  -28.7075 C   0  0  1  0  0  0  0  0  0  0  0  0
   68.0179   40.4544  -29.3372 C   0  0  0  0  0  0  0  0  0  0  0  0
   70.4168   37.1486  -27.0038 C   0  0  0  0  0  0  0  0  0  0  0  0
   70.0349   35.6955  -27.4287 C   0  0  0  0  0  0  0  0  0  0  0  0
   67.7773   38.2370  -27.6093 C   0  0  0  0  0  0  0  0  0  0  0  0
   66.7387   38.6331  -25.7859 C   0  0  0  0  0  0  0  0  0  0  0  0
   62.4541   32.2421  -24.9037 C   0  0  0  0  0  0  0  0  0  0  0  0
   65.5279   36.3284  -25.5924 C   0  0  0  0  0  0  0  0  0  0  0  0
   62.1120   42.3795  -32.4670 Cl  0  0  0  0  0  0  0  0  0  0  0  0
   63.8772   41.4927  -29.0022 C   0  0  0  0  0  0  0  0  0  0  0  0
   62.9177   41.6951  -29.9852 C   0  0  0  0  0  0  0  0  0  0  0  0
   63.3182   42.0626  -31.2550 C   0  0  0  0  0  0  0  0  0  0  0  0
   64.6518   42.2324  -31.5726 C   0  0  0  0  0  0  0  0  0  0  0  0
   65.6313   42.0428  -30.5861 C   0  0  0  0  0  0  0  0  0  0  0  0
   65.2275   41.6758  -29.2910 C   0  0  0  0  0  0  0  0  0  0  0  0
   66.1928   41.4788  -28.2562 N   0  0  0  0  0  0  0  0  0  0  0  0
   66.2869   40.5673  -27.2845 C   0  0  0  0  0  0  0  0  0  0  0  0
   67.2610   40.8834  -26.4787 N   0  0  0  0  0  0  0  0  0  0  0  0
   67.7921   42.0277  -26.9765 N   0  0  0  0  0  0  0  0  0  0  0  0
   67.1650   42.3968  -28.0507 N   0  0  0  0  0  0  0  0  0  0  0  0
   68.0558   41.5564  -30.3264 C   0  0  0  0  0  0  0  0  0  0  0  0
   67.5565   40.6090  -28.1986 O   0  0  0  0  0  0  0  0  0  0  0  0
   68.5777   39.2870  -29.7197 N   0  0  0  0  0  0  0  0  0  0  0  0
   67.6431   39.1593  -26.6733 N   0  0  0  0  0  0  0  0  0  0  0  0
   66.3264   37.3887  -26.2081 C   0  0  0  0  0  0  0  0  0  0  0  0
   66.9836   37.1760  -27.3878 N   0  0  0  0  0  0  0  0  0  0  0  0
   64.2834   36.6339  -25.0338 C   0  0  0  0  0  0  0  0  0  0  0  0
   63.4564   35.6346  -24.5569 C   0  0  0  0  0  0  0  0  0  0  0  0
   63.8498   34.2985  -24.6415 C   0  0  0  0  0  0  0  0  0  0  0  0
   65.1035   33.9890  -25.1752 C   0  0  0  0  0  0  0  0  0  0  0  0
   65.9560   34.9873  -25.6395 C   0  0  0  0  0  0  0  0  0  0  0  0
   63.0611   33.2170  -24.1643 N   0  0  0  0  0  0  0  0  0  0  0  0
   61.2588   32.0489  -24.9983 O   0  0  0  0  0  0  0  0  0  0  0  0
   63.3885   31.4876  -25.5163 O   0  0  0  0  0  0  0  0  0  0  0  0
   63.2229   30.0506  -25.3875 C   0  0  0  0  0  0  0  0  0  0  0  0
   69.7393   34.7118  -26.2834 C   0  0  0  0  0  0  0  0  0  0  0  0
   68.4946   34.9943  -25.4244 C   0  0  1  0  0  0  0  0  0  0  0  0
   67.2540   34.7057  -26.1297 N   0  0  0  0  0  0  0  0  0  0  0  0
   68.4881   34.2115  -24.1206 C   0  0  0  0  0  0  0  0  0  0  0  0
   67.5184   34.0543  -23.4329 O   0  0  0  0  0  0  0  0  0  0  0  0
   69.7057   33.7802  -23.8093 O   0  0  0  0  0  0  0  0  0  0  0  0
   70.1714   32.5666  -24.4611 C   0  0  0  0  0  0  0  0  0  0  0  0
  1 16  1  0
  1 23  2  0
  2  3  1  6
  5  2  1  6
  3  7  1  0
  3 25  1  1
  4 23  1  0
  4 24  2  0
  4 25  1  0
  6  5  1  6
  6 38  1  0
  7 26  2  0
  7 28  1  0
  8 26  1  0
  8 27  2  0
  9 34  1  0
  9 35  2  0
  9 36  1  0
 10 27  1  0
 10 29  1  0
 10 33  2  0
 11 14  1  0
 12 13  2  0
 12 17  1  0
 13 14  1  0
 14 15  2  0
 15 16  1  0
 16 17  2  0
 17 18  1  0
 18 19  1  0
 18 22  1  0
 19 20  2  0
 20 21  1  0
 21 22  2  0
 27 28  1  0
 29 30  2  0
 30 31  1  0
 31 32  2  0
 31 34  1  0
 32 33  1  0
 33 40  1  0
 37 36  1  6
 38 39  1  1
 39 40  1  0
 39 41  1  1
 41 42  2  0
 41 43  1  0
 44 43  1  6
M  END
$$$$
