
     RDKit          3D

 44 48  0  0  0  0  0  0  0  0999 V2000
 2772.758823042.6680-1266.8324 C   0  0  0  0  0  0  0  0  0  0  0  0
 2773.895823039.7559-1268.8888 C   0  0  0  0  0  0  0  0  0  0  0  0
 2773.274223039.8477-1267.4871 C   0  0  1  0  0  0  0  0  0  0  0  0
 2774.339823041.0508-1265.6771 C   0  0  0  0  0  0  0  0  0  0  0  0
 2772.814023039.6895-1270.0374 C   0  0  0  0  0  0  0  0  0  0  0  0
 2771.706823040.7891-1270.0106 C   0  0  0  0  0  0  0  0  0  0  0  0
 2772.248023038.7637-1267.3262 C   0  0  0  0  0  0  0  0  0  0  0  0
 2771.238523036.8867-1267.4131 C   0  0  0  0  0  0  0  0  0  0  0  0
 2763.750223038.3535-1266.3623 C   0  0  0  0  0  0  0  0  0  0  0  0
 2768.802223037.8242-1267.3926 C   0  0  0  0  0  0  0  0  0  0  0  0
 2767.796423041.8672-1267.9661 Cl  0  0  0  0  0  0  0  0  0  0  0  0
 2771.113023039.7500-1268.5989 C   0  0  0  0  0  0  0  0  0  0  0  0
 2769.790523040.1660-1268.6069 C   0  0  0  0  0  0  0  0  0  0  0  0
 2769.461923041.3730-1268.0115 C   0  0  0  0  0  0  0  0  0  0  0  0
 2770.417223042.1641-1267.4081 C   0  0  0  0  0  0  0  0  0  0  0  0
 2771.755123041.7422-1267.3817 C   0  0  0  0  0  0  0  0  0  0  0  0
 2772.093323040.5176-1267.9802 C   0  0  0  0  0  0  0  0  0  0  0  0
 2773.442423040.0488-1267.9696 N   0  0  0  0  0  0  0  0  0  0  0  0
 2774.366523039.9727-1268.9313 C   0  0  0  0  0  0  0  0  0  0  0  0
 2775.409223039.3242-1268.4841 N   0  0  0  0  0  0  0  0  0  0  0  0
 2775.120423039.0059-1267.1974 N   0  0  0  0  0  0  0  0  0  0  0  0
 2773.943423039.4395-1266.8689 N   0  0  0  0  0  0  0  0  0  0  0  0
 2773.956323042.3008-1266.3689 C   0  0  0  0  0  0  0  0  0  0  0  0
 2774.774923041.0430-1264.5179 O   0  0  0  0  0  0  0  0  0  0  0  0
 2774.255623039.9141-1266.4034 N   0  0  0  0  0  0  0  0  0  0  0  0
 2772.479723037.4707-1267.4264 N   0  0  0  0  0  0  0  0  0  0  0  0
 2770.261523037.8477-1267.2932 C   0  0  0  0  0  0  0  0  0  0  0  0
 2770.937023039.0352-1267.2111 N   0  0  0  0  0  0  0  0  0  0  0  0
 2768.073523036.8828-1266.6534 C   0  0  0  0  0  0  0  0  0  0  0  0
 2766.692923036.9238-1266.6334 C   0  0  0  0  0  0  0  0  0  0  0  0
 2766.003723037.9043-1267.3433 C   0  0  0  0  0  0  0  0  0  0  0  0
 2766.724423038.8262-1268.1046 C   0  0  0  0  0  0  0  0  0  0  0  0
 2768.116223038.7930-1268.1515 C   0  0  0  0  0  0  0  0  0  0  0  0
 2764.585723037.9961-1267.3809 N   0  0  0  0  0  0  0  0  0  0  0  0
 2763.990023039.1543-1265.4810 O   0  0  0  0  0  0  0  0  0  0  0  0
 2762.596223037.6660-1266.4569 O   0  0  0  0  0  0  0  0  0  0  0  0
 2762.040823037.5430-1267.7939 C   0  0  0  0  0  0  0  0  0  0  0  0
 2770.404823040.4590-1270.7585 C   0  0  0  0  0  0  0  0  0  0  0  0
 2769.548623039.3086-1270.1936 C   0  0  1  0  0  0  0  0  0  0  0  0
 2768.867723039.6797-1268.9609 N   0  0  0  0  0  0  0  0  0  0  0  0
 2768.502423038.8145-1271.1798 C   0  0  0  0  0  0  0  0  0  0  0  0
 2767.696823037.9531-1270.9359 O   0  0  0  0  0  0  0  0  0  0  0  0
 2768.637023039.4023-1272.3636 O   0  0  0  0  0  0  0  0  0  0  0  0
 2767.455323040.0273-1272.9370 C   0  0  0  0  0  0  0  0  0  0  0  0
  1 16  1  0
  1 23  2  0
  2  3  1  6
  5  2  1  6
  3  7  1  0
  3 25  1  1
  4 23  1  0
  4 24  2  0
  4 25  1  0
  6  5  1  6
  6 38  1  0
  7 26  2  0
  7 28  1  0
  8 26  1  0
  8 27  2  0
  9 34  1  0
  9 35  2  0
  9 36  1  0
 10 27  1  0
 10 29  1  0
 10 33  2  0
 11 14  1  0
 12 13  2  0
 12 17  1  0
 13 14  1  0
 14 15  2  0
 15 16  1  0
 16 17  2  0
 17 18  1  0
 18 19  1  0
 18 22  1  0
 19 20  2  0
 20 21  1  0
 21 22  2  0
 27 28  1  0
 29 30  2  0
 30 31  1  0
 31 32  2  0
 31 34  1  0
 32 33  1  0
 33 40  1  0
 37 36  1  6
 38 39  1  1
 39 40  1  0
 39 41  1  6
 41 42  2  0
 41 43  1  0
 44 43  1  6
M  END
$$$$
