
     RDKit          3D

 44 48  0  0  0  0  0  0  0  0999 V2000
   -0.5716   35.6085   20.0219 C   0  0  0  0  0  0  0  0  0  0  0  0
    4.7435   36.4404   20.1306 C   0  0  0  0  0  0  0  0  0  0  0  0
    3.7239   35.2984   20.0061 C   0  0  1  0  0  0  0  0  0  0  0  0
    1.5910   34.7193   19.0234 C   0  0  0  0  0  0  0  0  0  0  0  0
    5.9006   36.1217   21.1566 C   0  0  0  0  0  0  0  0  0  0  0  0
    6.6368   34.7576   20.9695 C   0  0  0  0  0  0  0  0  0  0  0  0
    3.2599   34.8983   21.3758 C   0  0  0  0  0  0  0  0  0  0  0  0
    2.6126   34.9691   23.4097 C   0  0  0  0  0  0  0  0  0  0  0  0
    5.0224   28.0884   26.0283 C   0  0  0  0  0  0  0  0  0  0  0  0
    3.5373   32.6360   24.1283 C   0  0  0  0  0  0  0  0  0  0  0  0
    2.5474   39.2951   21.8243 Cl  0  0  0  0  0  0  0  0  0  0  0  0
   -0.7208   37.5369   23.2854 C   0  0  0  0  0  0  0  0  0  0  0  0
    0.3697   38.3818   23.1285 C   0  0  0  0  0  0  0  0  0  0  0  0
    1.1439   38.2815   21.9890 C   0  0  0  0  0  0  0  0  0  0  0  0
    0.8589   37.3612   20.9990 C   0  0  0  0  0  0  0  0  0  0  0  0
   -0.2331   36.4931   21.1498 C   0  0  0  0  0  0  0  0  0  0  0  0
   -1.0190   36.5872   22.3111 C   0  0  0  0  0  0  0  0  0  0  0  0
   -2.1361   35.7180   22.5062 N   0  0  0  0  0  0  0  0  0  0  0  0
   -2.5695   35.0474   23.5769 C   0  0  0  0  0  0  0  0  0  0  0  0
   -3.5457   34.2553   23.2335 N   0  0  0  0  0  0  0  0  0  0  0  0
   -3.7260   34.4508   21.9036 N   0  0  0  0  0  0  0  0  0  0  0  0
   -2.8898   35.3335   21.4506 N   0  0  0  0  0  0  0  0  0  0  0  0
    0.2461   35.3398   18.9999 C   0  0  0  0  0  0  0  0  0  0  0  0
    1.7478   33.4920   19.0716 O   0  0  0  0  0  0  0  0  0  0  0  0
    2.6410   35.5670   19.0593 N   0  0  0  0  0  0  0  0  0  0  0  0
    2.6639   35.6937   22.2458 N   0  0  0  0  0  0  0  0  0  0  0  0
    3.1766   33.7268   23.2222 C   0  0  0  0  0  0  0  0  0  0  0  0
    3.5538   33.7005   21.9084 N   0  0  0  0  0  0  0  0  0  0  0  0
    2.5950   32.1532   25.0410 C   0  0  0  0  0  0  0  0  0  0  0  0
    2.8675   31.0458   25.8217 C   0  0  0  0  0  0  0  0  0  0  0  0
    4.0888   30.3827   25.6965 C   0  0  0  0  0  0  0  0  0  0  0  0
    5.0446   30.8759   24.8045 C   0  0  0  0  0  0  0  0  0  0  0  0
    4.7918   32.0035   24.0276 C   0  0  0  0  0  0  0  0  0  0  0  0
    4.4468   29.2456   26.4701 N   0  0  0  0  0  0  0  0  0  0  0  0
    5.3999   27.1627   26.7180 O   0  0  0  0  0  0  0  0  0  0  0  0
    5.1376   28.1214   24.6854 O   0  0  0  0  0  0  0  0  0  0  0  0
    5.7810   29.3020   24.1363 C   0  0  0  0  0  0  0  0  0  0  0  0
    7.3668   34.2080   22.2073 C   0  0  0  0  0  0  0  0  0  0  0  0
    6.4949   33.7932   23.4050 C   0  0  1  0  0  0  0  0  0  0  0  0
    5.7641   32.5579   23.1605 N   0  0  0  0  0  0  0  0  0  0  0  0
    7.2963   33.6206   24.6859 C   0  0  0  0  0  0  0  0  0  0  0  0
    6.8095   33.4935   25.7743 O   0  0  0  0  0  0  0  0  0  0  0  0
    8.6024   33.6934   24.4527 O   0  0  0  0  0  0  0  0  0  0  0  0
    9.4912   33.6175   25.6010 C   0  0  0  0  0  0  0  0  0  0  0  0
  1 16  1  0
  1 23  2  0
  2  3  1  6
  5  2  1  6
  3  7  1  0
  3 25  1  6
  4 23  1  0
  4 24  2  0
  4 25  1  0
  6  5  1  6
  6 38  1  0
  7 26  2  0
  7 28  1  0
  8 26  1  0
  8 27  2  0
  9 34  1  0
  9 35  2  0
  9 36  1  0
 10 27  1  0
 10 29  1  0
 10 33  2  0
 11 14  1  0
 12 13  2  0
 12 17  1  0
 13 14  1  0
 14 15  2  0
 15 16  1  0
 16 17  2  0
 17 18  1  0
 18 19  1  0
 18 22  1  0
 19 20  2  0
 20 21  1  0
 21 22  2  0
 27 28  1  0
 29 30  2  0
 30 31  1  0
 31 32  2  0
 31 34  1  0
 32 33  1  0
 33 40  1  0
 37 36  1  6
 38 39  1  1
 39 40  1  0
 39 41  1  1
 41 42  2  0
 41 43  1  0
 44 43  1  6
M  END
$$$$
