
     RDKit          3D

 44 48  0  0  0  0  0  0  0  0999 V2000
   34.4766   51.1994  -20.4534 C   0  0  0  0  0  0  0  0  0  0  0  0
   34.7774   48.4545  -15.5913 C   0  0  0  0  0  0  0  0  0  0  0  0
   35.7874   48.6277  -16.7355 C   0  0  1  0  0  0  0  0  0  0  0  0
   35.5220   50.4998  -18.2437 C   0  0  0  0  0  0  0  0  0  0  0  0
   35.4191   47.8179  -14.2966 C   0  0  0  0  0  0  0  0  0  0  0  0
   36.7252   48.4904  -13.7678 C   0  0  0  0  0  0  0  0  0  0  0  0
   36.5068   47.3303  -16.9607 C   0  0  0  0  0  0  0  0  0  0  0  0
   36.9368   45.2501  -17.1808 C   0  0  0  0  0  0  0  0  0  0  0  0
   44.4871   44.2250  -16.1878 C   0  0  0  0  0  0  0  0  0  0  0  0
   39.4249   45.3461  -16.3965 C   0  0  0  0  0  0  0  0  0  0  0  0
   31.4936   54.3286  -17.6467 Cl  0  0  0  0  0  0  0  0  0  0  0  0
   33.2920   54.7285  -21.1840 C   0  0  0  0  0  0  0  0  0  0  0  0
   32.5688   54.9953  -20.0293 C   0  0  0  0  0  0  0  0  0  0  0  0
   32.4543   54.0157  -19.0621 C   0  0  0  0  0  0  0  0  0  0  0  0
   33.0438   52.7758  -19.2145 C   0  0  0  0  0  0  0  0  0  0  0  0
   33.7676   52.4884  -20.3816 C   0  0  0  0  0  0  0  0  0  0  0  0
   33.8804   53.4799  -21.3711 C   0  0  0  0  0  0  0  0  0  0  0  0
   34.6037   53.2258  -22.5769 N   0  0  0  0  0  0  0  0  0  0  0  0
   34.9378   54.0151  -23.6011 C   0  0  0  0  0  0  0  0  0  0  0  0
   35.4652   53.2991  -24.5536 N   0  0  0  0  0  0  0  0  0  0  0  0
   35.4633   52.0222  -24.0965 N   0  0  0  0  0  0  0  0  0  0  0  0
   34.9540   51.9609  -22.9047 N   0  0  0  0  0  0  0  0  0  0  0  0
   35.5128   50.8623  -19.6801 C   0  0  0  0  0  0  0  0  0  0  0  0
   35.8504   51.3072  -17.3643 O   0  0  0  0  0  0  0  0  0  0  0  0
   35.2190   49.2180  -17.9478 N   0  0  0  0  0  0  0  0  0  0  0  0
   35.9359   46.1830  -17.2808 N   0  0  0  0  0  0  0  0  0  0  0  0
   38.1158   45.8553  -16.8061 C   0  0  0  0  0  0  0  0  0  0  0  0
   37.8170   47.1853  -16.7017 N   0  0  0  0  0  0  0  0  0  0  0  0
   40.0769   44.3953  -17.1870 C   0  0  0  0  0  0  0  0  0  0  0  0
   41.3640   43.9892  -16.8899 C   0  0  0  0  0  0  0  0  0  0  0  0
   42.0384   44.5382  -15.7986 C   0  0  0  0  0  0  0  0  0  0  0  0
   41.3826   45.4697  -14.9896 C   0  0  0  0  0  0  0  0  0  0  0  0
   40.0781   45.8717  -15.2646 C   0  0  0  0  0  0  0  0  0  0  0  0
   43.3571   44.1648  -15.4228 N   0  0  0  0  0  0  0  0  0  0  0  0
   44.5346   44.3756  -17.3920 O   0  0  0  0  0  0  0  0  0  0  0  0
   45.5745   44.0693  -15.4061 O   0  0  0  0  0  0  0  0  0  0  0  0
   45.4342   43.1262  -14.3106 C   0  0  0  0  0  0  0  0  0  0  0  0
   37.6209   47.6166  -12.8727 C   0  0  0  0  0  0  0  0  0  0  0  0
   38.2862   46.3955  -13.5309 C   0  0  1  0  0  0  0  0  0  0  0  0
   39.3708   46.7684  -14.4278 N   0  0  0  0  0  0  0  0  0  0  0  0
   38.8342   45.4043  -12.5160 C   0  0  0  0  0  0  0  0  0  0  0  0
   38.1675   44.8459  -11.6904 O   0  0  0  0  0  0  0  0  0  0  0  0
   40.1536   45.2861  -12.6192 O   0  0  0  0  0  0  0  0  0  0  0  0
   40.8633   46.3294  -13.3419 C   0  0  0  0  0  0  0  0  0  0  0  0
  1 16  1  0
  1 23  2  0
  2  3  1  6
  5  2  1  6
  3  7  1  0
  3 25  1  6
  4 23  1  0
  4 24  2  0
  4 25  1  0
  6  5  1  6
  6 38  1  0
  7 26  2  0
  7 28  1  0
  8 26  1  0
  8 27  2  0
  9 34  1  0
  9 35  2  0
  9 36  1  0
 10 27  1  0
 10 29  1  0
 10 33  2  0
 11 14  1  0
 12 13  2  0
 12 17  1  0
 13 14  1  0
 14 15  2  0
 15 16  1  0
 16 17  2  0
 17 18  1  0
 18 19  1  0
 18 22  1  0
 19 20  2  0
 20 21  1  0
 21 22  2  0
 27 28  1  0
 29 30  2  0
 30 31  1  0
 31 32  2  0
 31 34  1  0
 32 33  1  0
 33 40  1  0
 37 36  1  6
 38 39  1  1
 39 40  1  0
 39 41  1  1
 41 42  2  0
 41 43  1  0
 44 43  1  6
M  END
$$$$
