
     RDKit          3D

 44 48  0  0  0  0  0  0  0  0999 V2000
   23.5532   64.8324   82.5590 C   0  0  0  0  0  0  0  0  0  0  0  0
   25.2633   59.7066   81.9691 C   0  0  0  0  0  0  0  0  0  0  0  0
   25.1995   60.9906   81.1286 C   0  0  1  0  0  0  0  0  0  0  0  0
   23.5306   62.7411   81.1130 C   0  0  0  0  0  0  0  0  0  0  0  0
   26.0155   58.5284   81.2348 C   0  0  0  0  0  0  0  0  0  0  0  0
   27.4243   58.8627   80.6507 C   0  0  0  0  0  0  0  0  0  0  0  0
   24.6743   60.6615   79.7621 C   0  0  0  0  0  0  0  0  0  0  0  0
   23.5367   59.8139   78.1658 C   0  0  0  0  0  0  0  0  0  0  0  0
   28.1833   60.6211   72.0330 C   0  0  0  0  0  0  0  0  0  0  0  0
   25.3836   59.9736   76.3278 C   0  0  0  0  0  0  0  0  0  0  0  0
   19.1774   65.6502   85.1573 Cl  0  0  0  0  0  0  0  0  0  0  0  0
   22.9067   66.9891   85.6122 C   0  0  0  0  0  0  0  0  0  0  0  0
   21.5561   66.7395   85.8151 C   0  0  0  0  0  0  0  0  0  0  0  0
   20.8832   65.9093   84.9398 C   0  0  0  0  0  0  0  0  0  0  0  0
   21.5220   65.3187   83.8668 C   0  0  0  0  0  0  0  0  0  0  0  0
   22.8838   65.5716   83.6428 C   0  0  0  0  0  0  0  0  0  0  0  0
   23.5702   66.4214   84.5270 C   0  0  0  0  0  0  0  0  0  0  0  0
   24.9559   66.7095   84.3311 N   0  0  0  0  0  0  0  0  0  0  0  0
   25.5901   67.4904   83.4525 C   0  0  0  0  0  0  0  0  0  0  0  0
   26.8770   67.3140   83.5572 N   0  0  0  0  0  0  0  0  0  0  0  0
   27.0425   66.3965   84.5421 N   0  0  0  0  0  0  0  0  0  0  0  0
   25.8960   66.0265   85.0238 N   0  0  0  0  0  0  0  0  0  0  0  0
   22.9522   63.9350   81.7724 C   0  0  0  0  0  0  0  0  0  0  0  0
   23.1007   62.3139   80.0333 O   0  0  0  0  0  0  0  0  0  0  0  0
   24.5089   62.1001   81.7869 N   0  0  0  0  0  0  0  0  0  0  0  0
   23.4996   60.1155   79.5037 N   0  0  0  0  0  0  0  0  0  0  0  0
   24.7446   60.1952   77.6253 C   0  0  0  0  0  0  0  0  0  0  0  0
   25.4372   60.7586   78.6606 N   0  0  0  0  0  0  0  0  0  0  0  0
   24.6826   60.2585   75.1525 C   0  0  0  0  0  0  0  0  0  0  0  0
   25.3023   60.1753   73.9200 C   0  0  0  0  0  0  0  0  0  0  0  0
   26.6485   59.8182   73.8345 C   0  0  0  0  0  0  0  0  0  0  0  0
   27.3474   59.5071   75.0037 C   0  0  0  0  0  0  0  0  0  0  0  0
   26.7296   59.5657   76.2503 C   0  0  0  0  0  0  0  0  0  0  0  0
   27.3522   59.7006   72.6054 N   0  0  0  0  0  0  0  0  0  0  0  0
   28.3777   60.7750   70.8440 O   0  0  0  0  0  0  0  0  0  0  0  0
   28.7929   61.3435   72.9943 O   0  0  0  0  0  0  0  0  0  0  0  0
   30.2431   61.3850   72.9284 C   0  0  0  0  0  0  0  0  0  0  0  0
   27.9262   57.9406   79.5261 C   0  0  0  0  0  0  0  0  0  0  0  0
   27.1532   57.9770   78.1964 C   0  0  1  0  0  0  0  0  0  0  0  0
   27.3978   59.1988   77.4434 N   0  0  0  0  0  0  0  0  0  0  0  0
   27.4756   56.7956   77.2946 C   0  0  0  0  0  0  0  0  0  0  0  0
   26.7831   55.8230   77.1835 O   0  0  0  0  0  0  0  0  0  0  0  0
   28.6520   56.9505   76.6967 O   0  0  0  0  0  0  0  0  0  0  0  0
   28.6434   57.3614   75.3018 C   0  0  0  0  0  0  0  0  0  0  0  0
  1 16  1  0
  1 23  2  0
  2  3  1  6
  5  2  1  6
  3  7  1  0
  3 25  1  1
  4 23  1  0
  4 24  2  0
  4 25  1  0
  6  5  1  6
  6 38  1  0
  7 26  2  0
  7 28  1  0
  8 26  1  0
  8 27  2  0
  9 34  1  0
  9 35  2  0
  9 36  1  0
 10 27  1  0
 10 29  1  0
 10 33  2  0
 11 14  1  0
 12 13  2  0
 12 17  1  0
 13 14  1  0
 14 15  2  0
 15 16  1  0
 16 17  2  0
 17 18  1  0
 18 19  1  0
 18 22  1  0
 19 20  2  0
 20 21  1  0
 21 22  2  0
 27 28  1  0
 29 30  2  0
 30 31  1  0
 31 32  2  0
 31 34  1  0
 32 33  1  0
 33 40  1  0
 37 36  1  6
 38 39  1  1
 39 40  1  0
 39 41  1  6
 41 42  2  0
 41 43  1  0
 44 43  1  6
M  END
$$$$
