
     RDKit          3D

 44 48  0  0  0  0  0  0  0  0999 V2000
   27.1183   37.0586   -1.0440 C   0  0  0  0  0  0  0  0  0  0  0  0
   29.3470   32.2021   -2.1164 C   0  0  0  0  0  0  0  0  0  0  0  0
   28.9755   32.8780   -0.7881 C   0  0  1  0  0  0  0  0  0  0  0  0
   28.8337   35.2150   -1.3953 C   0  0  0  0  0  0  0  0  0  0  0  0
   28.8219   30.7164   -2.2176 C   0  0  0  0  0  0  0  0  0  0  0  0
   27.3094   30.4926   -1.9014 C   0  0  0  0  0  0  0  0  0  0  0  0
   29.3794   31.9874    0.3499 C   0  0  0  0  0  0  0  0  0  0  0  0
   30.4695   30.6325    1.5896 C   0  0  0  0  0  0  0  0  0  0  0  0
   25.8860   25.8070    5.2406 C   0  0  0  0  0  0  0  0  0  0  0  0
   28.4133   29.5606    2.7888 C   0  0  0  0  0  0  0  0  0  0  0  0
   25.9742   39.3382    3.4350 Cl  0  0  0  0  0  0  0  0  0  0  0  0
   23.9155   38.7605    0.0682 C   0  0  0  0  0  0  0  0  0  0  0  0
   24.2818   39.1792    1.3403 C   0  0  0  0  0  0  0  0  0  0  0  0
   25.5407   38.8700    1.8172 C   0  0  0  0  0  0  0  0  0  0  0  0
   26.4467   38.1549    1.0583 C   0  0  0  0  0  0  0  0  0  0  0  0
   26.0858   37.7151   -0.2243 C   0  0  0  0  0  0  0  0  0  0  0  0
   24.8033   38.0216   -0.7104 C   0  0  0  0  0  0  0  0  0  0  0  0
   24.3942   37.5874   -2.0087 N   0  0  0  0  0  0  0  0  0  0  0  0
   23.1968   37.5405   -2.5985 C   0  0  0  0  0  0  0  0  0  0  0  0
   23.2933   36.9181   -3.7393 N   0  0  0  0  0  0  0  0  0  0  0  0
   24.5999   36.5758   -3.8610 N   0  0  0  0  0  0  0  0  0  0  0  0
   25.2786   36.9771   -2.8305 N   0  0  0  0  0  0  0  0  0  0  0  0
   27.6685   35.8743   -0.7611 C   0  0  0  0  0  0  0  0  0  0  0  0
   29.1891   35.4788   -2.5516 O   0  0  0  0  0  0  0  0  0  0  0  0
   29.4485   34.2576   -0.6688 N   0  0  0  0  0  0  0  0  0  0  0  0
   30.6080   31.5703    0.5978 N   0  0  0  0  0  0  0  0  0  0  0  0
   29.1437   30.5009    1.9384 C   0  0  0  0  0  0  0  0  0  0  0  0
   28.4767   31.3981    1.1516 N   0  0  0  0  0  0  0  0  0  0  0  0
   28.8580   29.3147    4.0910 C   0  0  0  0  0  0  0  0  0  0  0  0
   28.1202   28.5277    4.9549 C   0  0  0  0  0  0  0  0  0  0  0  0
   26.9069   27.9778    4.5398 C   0  0  0  0  0  0  0  0  0  0  0  0
   26.4699   28.1987    3.2311 C   0  0  0  0  0  0  0  0  0  0  0  0
   27.2139   28.9715    2.3433 C   0  0  0  0  0  0  0  0  0  0  0  0
   26.0976   27.1506    5.3647 N   0  0  0  0  0  0  0  0  0  0  0  0
   26.4871   24.9264    5.8223 O   0  0  0  0  0  0  0  0  0  0  0  0
   24.9052   25.5818    4.3433 O   0  0  0  0  0  0  0  0  0  0  0  0
   24.9072   26.4461    3.1762 C   0  0  0  0  0  0  0  0  0  0  0  0
   26.9085   29.0651   -1.4910 C   0  0  0  0  0  0  0  0  0  0  0  0
   27.4636   28.5410   -0.1554 C   0  0  1  0  0  0  0  0  0  0  0  0
   26.8236   29.1617    0.9957 N   0  0  0  0  0  0  0  0  0  0  0  0
   27.3293   27.0329   -0.0124 C   0  0  0  0  0  0  0  0  0  0  0  0
   26.3219   26.4738    0.3200 O   0  0  0  0  0  0  0  0  0  0  0  0
   28.4864   26.4206   -0.2395 O   0  0  0  0  0  0  0  0  0  0  0  0
   28.5554   24.9960    0.0442 C   0  0  0  0  0  0  0  0  0  0  0  0
  1 16  1  0
  1 23  2  0
  2  3  1  6
  5  2  1  6
  3  7  1  0
  3 25  1  1
  4 23  1  0
  4 24  2  0
  4 25  1  0
  6  5  1  6
  6 38  1  0
  7 26  2  0
  7 28  1  0
  8 26  1  0
  8 27  2  0
  9 34  1  0
  9 35  2  0
  9 36  1  0
 10 27  1  0
 10 29  1  0
 10 33  2  0
 11 14  1  0
 12 13  2  0
 12 17  1  0
 13 14  1  0
 14 15  2  0
 15 16  1  0
 16 17  2  0
 17 18  1  0
 18 19  1  0
 18 22  1  0
 19 20  2  0
 20 21  1  0
 21 22  2  0
 27 28  1  0
 29 30  2  0
 30 31  1  0
 31 32  2  0
 31 34  1  0
 32 33  1  0
 33 40  1  0
 37 36  1  6
 38 39  1  1
 39 40  1  0
 39 41  1  1
 41 42  2  0
 41 43  1  0
 44 43  1  6
M  END
$$$$
