
     RDKit          3D

 44 48  0  0  0  0  0  0  0  0999 V2000
 -173.1583   54.1241   11.9135 C   0  0  0  0  0  0  0  0  0  0  0  0
 -177.8586   52.7378   10.3476 C   0  0  0  0  0  0  0  0  0  0  0  0
 -176.8416   53.6170    9.6045 C   0  0  1  0  0  0  0  0  0  0  0  0
 -175.2523   52.8412   11.2544 C   0  0  0  0  0  0  0  0  0  0  0  0
 -179.2486   52.6442    9.6043 C   0  0  0  0  0  0  0  0  0  0  0  0
 -179.2017   52.2569    8.0925 C   0  0  0  0  0  0  0  0  0  0  0  0
 -177.4739   54.9386    9.2806 C   0  0  0  0  0  0  0  0  0  0  0  0
 -178.6129   56.7401    9.4145 C   0  0  0  0  0  0  0  0  0  0  0  0
 -181.4711   57.9941    2.4194 C   0  0  0  0  0  0  0  0  0  0  0  0
 -179.1024   57.0073    6.8642 C   0  0  0  0  0  0  0  0  0  0  0  0
 -168.6373   56.4095   10.9628 Cl  0  0  0  0  0  0  0  0  0  0  0  0
 -169.6577   52.6627   11.8722 C   0  0  0  0  0  0  0  0  0  0  0  0
 -168.9137   53.8000   11.5882 C   0  0  0  0  0  0  0  0  0  0  0  0
 -169.5656   55.0004   11.3832 C   0  0  0  0  0  0  0  0  0  0  0  0
 -170.9416   55.0983   11.4556 C   0  0  0  0  0  0  0  0  0  0  0  0
 -171.7068   53.9547   11.7300 C   0  0  0  0  0  0  0  0  0  0  0  0
 -171.0478   52.7301   11.9322 C   0  0  0  0  0  0  0  0  0  0  0  0
 -171.7902   51.5410   12.2082 N   0  0  0  0  0  0  0  0  0  0  0  0
 -171.4532   50.3972   12.8098 C   0  0  0  0  0  0  0  0  0  0  0  0
 -172.4232   49.5353   12.6897 N   0  0  0  0  0  0  0  0  0  0  0  0
 -173.3975   50.1742   11.9953 N   0  0  0  0  0  0  0  0  0  0  0  0
 -173.0356   51.3854   11.7029 N   0  0  0  0  0  0  0  0  0  0  0  0
 -174.0271   53.1169   12.0403 C   0  0  0  0  0  0  0  0  0  0  0  0
 -175.9402   51.8292   11.4432 O   0  0  0  0  0  0  0  0  0  0  0  0
 -175.5430   53.7192   10.2711 N   0  0  0  0  0  0  0  0  0  0  0  0
 -177.9667   55.7892   10.1629 N   0  0  0  0  0  0  0  0  0  0  0  0
 -178.4923   56.4528    8.0730 C   0  0  0  0  0  0  0  0  0  0  0  0
 -177.7366   55.3149    8.0180 N   0  0  0  0  0  0  0  0  0  0  0  0
 -179.0794   58.3881    6.6473 C   0  0  0  0  0  0  0  0  0  0  0  0
 -179.5377   58.9265    5.4598 C   0  0  0  0  0  0  0  0  0  0  0  0
 -180.0180   58.0916    4.4503 C   0  0  0  0  0  0  0  0  0  0  0  0
 -180.0676   56.7128    4.6713 C   0  0  0  0  0  0  0  0  0  0  0  0
 -179.6295   56.1586    5.8713 C   0  0  0  0  0  0  0  0  0  0  0  0
 -180.5156   58.5693    3.2078 N   0  0  0  0  0  0  0  0  0  0  0  0
 -182.5600   58.4604    2.1509 O   0  0  0  0  0  0  0  0  0  0  0  0
 -181.0388   56.7940    1.9829 O   0  0  0  0  0  0  0  0  0  0  0  0
 -180.6718   55.8416    3.0161 C   0  0  0  0  0  0  0  0  0  0  0  0
 -180.4275   52.6577    7.2536 C   0  0  0  0  0  0  0  0  0  0  0  0
 -180.6778   54.1631    7.0587 C   0  0  1  0  0  0  0  0  0  0  0  0
 -179.7237   54.7723    6.1430 N   0  0  0  0  0  0  0  0  0  0  0  0
 -182.0784   54.4667    6.5499 C   0  0  0  0  0  0  0  0  0  0  0  0
 -182.9921   53.6909    6.5855 O   0  0  0  0  0  0  0  0  0  0  0  0
 -182.1429   55.6761    6.0032 O   0  0  0  0  0  0  0  0  0  0  0  0
 -182.1969   56.8150    6.9057 C   0  0  0  0  0  0  0  0  0  0  0  0
  1 16  1  0
  1 23  2  0
  2  3  1  6
  5  2  1  6
  3  7  1  0
  3 25  1  1
  4 23  1  0
  4 24  2  0
  4 25  1  0
  6  5  1  6
  6 38  1  0
  7 26  2  0
  7 28  1  0
  8 26  1  0
  8 27  2  0
  9 34  1  0
  9 35  2  0
  9 36  1  0
 10 27  1  0
 10 29  1  0
 10 33  2  0
 11 14  1  0
 12 13  2  0
 12 17  1  0
 13 14  1  0
 14 15  2  0
 15 16  1  0
 16 17  2  0
 17 18  1  0
 18 19  1  0
 18 22  1  0
 19 20  2  0
 20 21  1  0
 21 22  2  0
 27 28  1  0
 29 30  2  0
 30 31  1  0
 31 32  2  0
 31 34  1  0
 32 33  1  0
 33 40  1  0
 37 36  1  6
 38 39  1  1
 39 40  1  0
 39 41  1  6
 41 42  2  0
 41 43  1  0
 44 43  1  6
M  END
$$$$
