
     RDKit          3D

 44 48  0  0  0  0  0  0  0  0999 V2000
  111.9675  -47.3796   -5.2952 C   0  0  0  0  0  0  0  0  0  0  0  0
  107.9623  -45.3755   -2.6375 C   0  0  0  0  0  0  0  0  0  0  0  0
  107.9715  -46.0267   -4.0285 C   0  0  1  0  0  0  0  0  0  0  0  0
  109.5652  -46.6694   -5.7306 C   0  0  0  0  0  0  0  0  0  0  0  0
  106.5514  -44.7849   -2.2450 C   0  0  0  0  0  0  0  0  0  0  0  0
  105.3302  -45.7453   -2.4006 C   0  0  0  0  0  0  0  0  0  0  0  0
  107.3886  -45.0698   -5.0265 C   0  0  0  0  0  0  0  0  0  0  0  0
  106.9044  -43.2873   -6.0984 C   0  0  0  0  0  0  0  0  0  0  0  0
   99.7764  -43.1433   -8.6597 C   0  0  0  0  0  0  0  0  0  0  0  0
  104.5487  -44.0393   -6.9354 C   0  0  0  0  0  0  0  0  0  0  0  0
  116.0836  -50.3281   -4.3301 Cl  0  0  0  0  0  0  0  0  0  0  0  0
  114.9669  -48.1572   -7.4840 C   0  0  0  0  0  0  0  0  0  0  0  0
  115.6682  -49.0201   -6.6525 C   0  0  0  0  0  0  0  0  0  0  0  0
  115.1709  -49.2995   -5.3944 C   0  0  0  0  0  0  0  0  0  0  0  0
  113.9902  -48.7423   -4.9427 C   0  0  0  0  0  0  0  0  0  0  0  0
  113.2774  -47.8593   -5.7679 C   0  0  0  0  0  0  0  0  0  0  0  0
  113.7838  -47.5670   -7.0458 C   0  0  0  0  0  0  0  0  0  0  0  0
  113.0916  -46.6685   -7.9148 N   0  0  0  0  0  0  0  0  0  0  0  0
  113.2105  -45.3539   -8.1186 C   0  0  0  0  0  0  0  0  0  0  0  0
  112.2514  -44.9419   -8.8987 N   0  0  0  0  0  0  0  0  0  0  0  0
  111.5189  -46.0447   -9.1931 N   0  0  0  0  0  0  0  0  0  0  0  0
  112.0147  -47.0946   -8.6141 N   0  0  0  0  0  0  0  0  0  0  0  0
  110.8860  -47.2490   -6.0689 C   0  0  0  0  0  0  0  0  0  0  0  0
  108.7999  -46.2277   -6.5979 O   0  0  0  0  0  0  0  0  0  0  0  0
  109.2675  -46.5845   -4.4167 N   0  0  0  0  0  0  0  0  0  0  0  0
  107.8549  -43.8633   -5.2942 N   0  0  0  0  0  0  0  0  0  0  0  0
  105.8682  -44.1680   -6.3163 C   0  0  0  0  0  0  0  0  0  0  0  0
  106.2191  -45.3056   -5.6441 N   0  0  0  0  0  0  0  0  0  0  0  0
  104.4327  -43.4713   -8.2074 C   0  0  0  0  0  0  0  0  0  0  0  0
  103.2175  -43.4493   -8.8654 C   0  0  0  0  0  0  0  0  0  0  0  0
  102.0874  -44.0112   -8.2702 C   0  0  0  0  0  0  0  0  0  0  0  0
  102.1916  -44.5572   -6.9883 C   0  0  0  0  0  0  0  0  0  0  0  0
  103.4048  -44.5666   -6.3049 C   0  0  0  0  0  0  0  0  0  0  0  0
  100.8026  -44.0180   -8.8775 N   0  0  0  0  0  0  0  0  0  0  0  0
   99.7764  -41.9554   -8.9130 O   0  0  0  0  0  0  0  0  0  0  0  0
   98.7401  -43.7906   -8.0898 O   0  0  0  0  0  0  0  0  0  0  0  0
   98.1071  -44.8107   -8.9069 C   0  0  0  0  0  0  0  0  0  0  0  0
  103.9529  -45.0721   -2.5303 C   0  0  0  0  0  0  0  0  0  0  0  0
  103.7016  -44.2350   -3.7963 C   0  0  1  0  0  0  0  0  0  0  0  0
  103.5245  -45.0596   -4.9831 N   0  0  0  0  0  0  0  0  0  0  0  0
  102.4899  -43.3246   -3.6703 C   0  0  0  0  0  0  0  0  0  0  0  0
  101.7646  -43.0369   -4.5808 O   0  0  0  0  0  0  0  0  0  0  0  0
  102.3761  -42.8387   -2.4389 O   0  0  0  0  0  0  0  0  0  0  0  0
  101.6318  -41.6003   -2.2756 C   0  0  0  0  0  0  0  0  0  0  0  0
  1 16  1  0
  1 23  2  0
  2  3  1  6
  5  2  1  6
  3  7  1  0
  3 25  1  6
  4 23  1  0
  4 24  2  0
  4 25  1  0
  6  5  1  6
  6 38  1  0
  7 26  2  0
  7 28  1  0
  8 26  1  0
  8 27  2  0
  9 34  1  0
  9 35  2  0
  9 36  1  0
 10 27  1  0
 10 29  1  0
 10 33  2  0
 11 14  1  0
 12 13  2  0
 12 17  1  0
 13 14  1  0
 14 15  2  0
 15 16  1  0
 16 17  2  0
 17 18  1  0
 18 19  1  0
 18 22  1  0
 19 20  2  0
 20 21  1  0
 21 22  2  0
 27 28  1  0
 29 30  2  0
 30 31  1  0
 31 32  2  0
 31 34  1  0
 32 33  1  0
 33 40  1  0
 37 36  1  6
 38 39  1  1
 39 40  1  0
 39 41  1  1
 41 42  2  0
 41 43  1  0
 44 43  1  6
M  END
$$$$
