
     RDKit          3D

 44 48  0  0  0  0  0  0  0  0999 V2000
-15871.7627-1505.5564-21991.4414 C   0  0  0  0  0  0  0  0  0  0  0  0
-15875.6738-1505.2639-21993.8672 C   0  0  0  0  0  0  0  0  0  0  0  0
-15874.7803-1506.3960-21994.3887 C   0  0  1  0  0  0  0  0  0  0  0  0
-15872.8496-1505.1121-21993.6973 C   0  0  0  0  0  0  0  0  0  0  0  0
-15877.1836-1505.7009-21993.6973 C   0  0  0  0  0  0  0  0  0  0  0  0
-15877.4385-1507.0125-21992.8906 C   0  0  0  0  0  0  0  0  0  0  0  0
-15875.4014-1506.9915-21995.6172 C   0  0  0  0  0  0  0  0  0  0  0  0
-15876.4150-1507.2166-21997.4824 C   0  0  0  0  0  0  0  0  0  0  0  0
-15880.0742-1513.9519-21996.6719 C   0  0  0  0  0  0  0  0  0  0  0  0
-15877.3643-1509.6096-21997.0508 C   0  0  0  0  0  0  0  0  0  0  0  0
-15868.3105-1507.9070-21988.4199 Cl  0  0  0  0  0  0  0  0  0  0  0  0
-15870.4043-1509.0952-21991.5977 C   0  0  0  0  0  0  0  0  0  0  0  0
-15869.5586-1509.0894-21990.4980 C   0  0  0  0  0  0  0  0  0  0  0  0
-15869.4189-1507.9324-21989.7539 C   0  0  0  0  0  0  0  0  0  0  0  0
-15870.1113-1506.7778-21990.0840 C   0  0  0  0  0  0  0  0  0  0  0  0
-15870.9609-1506.7676-21991.2012 C   0  0  0  0  0  0  0  0  0  0  0  0
-15871.0967-1507.9399-21991.9629 C   0  0  0  0  0  0  0  0  0  0  0  0
-15871.9473-1507.9697-21993.1035 N   0  0  0  0  0  0  0  0  0  0  0  0
-15873.2500-1508.2246-21993.2422 C   0  0  0  0  0  0  0  0  0  0  0  0
-15873.5547-1508.2883-21994.5117 N   0  0  0  0  0  0  0  0  0  0  0  0
-15872.3926-1508.0562-21995.1777 N   0  0  0  0  0  0  0  0  0  0  0  0
-15871.4180-1507.8552-21994.3457 N   0  0  0  0  0  0  0  0  0  0  0  0
-15872.8115-1505.4976-21992.2695 C   0  0  0  0  0  0  0  0  0  0  0  0
-15872.4746-1503.9971-21994.0898 O   0  0  0  0  0  0  0  0  0  0  0  0
-15873.3740-1506.0183-21994.5508 N   0  0  0  0  0  0  0  0  0  0  0  0
-15875.6816-1506.3359-21996.7305 N   0  0  0  0  0  0  0  0  0  0  0  0
-15876.5596-1508.4102-21996.8125 C   0  0  0  0  0  0  0  0  0  0  0  0
-15875.8828-1508.2463-21995.6387 N   0  0  0  0  0  0  0  0  0  0  0  0
-15877.3242-1510.2319-21998.3027 C   0  0  0  0  0  0  0  0  0  0  0  0
-15877.9707-1511.4324-21998.5195 C   0  0  0  0  0  0  0  0  0  0  0  0
-15878.6689-1512.0488-21997.4824 C   0  0  0  0  0  0  0  0  0  0  0  0
-15878.7402-1511.4189-21996.2363 C   0  0  0  0  0  0  0  0  0  0  0  0
-15878.1074-1510.1990-21996.0098 C   0  0  0  0  0  0  0  0  0  0  0  0
-15879.3730-1513.2761-21997.6289 N   0  0  0  0  0  0  0  0  0  0  0  0
-15881.0449-1514.6592-21996.8516 O   0  0  0  0  0  0  0  0  0  0  0  0
-15879.5352-1513.7063-21995.4570 O   0  0  0  0  0  0  0  0  0  0  0  0
-15878.2861-1514.3860-21995.1719 C   0  0  0  0  0  0  0  0  0  0  0  0
-15878.7832-1507.7158-21993.1465 C   0  0  0  0  0  0  0  0  0  0  0  0
-15878.9971-1508.3086-21994.5547 C   0  0  1  0  0  0  0  0  0  0  0  0
-15878.2100-1509.5112-21994.7754 N   0  0  0  0  0  0  0  0  0  0  0  0
-15880.4561-1508.6436-21994.8340 C   0  0  0  0  0  0  0  0  0  0  0  0
-15880.8564-1509.1116-21995.8652 O   0  0  0  0  0  0  0  0  0  0  0  0
-15881.2363-1508.2913-21993.8223 O   0  0  0  0  0  0  0  0  0  0  0  0
-15881.8330-1506.9673-21993.8613 C   0  0  0  0  0  0  0  0  0  0  0  0
  1 16  1  0
  1 23  2  0
  2  3  1  6
  5  2  1  6
  3  7  1  0
  3 25  1  6
  4 23  1  0
  4 24  2  0
  4 25  1  0
  6  5  1  6
  6 38  1  0
  7 26  2  0
  7 28  1  0
  8 26  1  0
  8 27  2  0
  9 34  1  0
  9 35  2  0
  9 36  1  0
 10 27  1  0
 10 29  1  0
 10 33  2  0
 11 14  1  0
 12 13  2  0
 12 17  1  0
 13 14  1  0
 14 15  2  0
 15 16  1  0
 16 17  2  0
 17 18  1  0
 18 19  1  0
 18 22  1  0
 19 20  2  0
 20 21  1  0
 21 22  2  0
 27 28  1  0
 29 30  2  0
 30 31  1  0
 31 32  2  0
 31 34  1  0
 32 33  1  0
 33 40  1  0
 37 36  1  6
 38 39  1  1
 39 40  1  0
 39 41  1  1
 41 42  2  0
 41 43  1  0
 44 43  1  6
M  END
$$$$
