
     RDKit          3D

 44 48  0  0  0  0  0  0  0  0999 V2000
   21.6257  111.9441 -119.6639 C   0  0  0  0  0  0  0  0  0  0  0  0
   25.2788  114.4485 -118.5565 C   0  0  0  0  0  0  0  0  0  0  0  0
   24.6066  114.5886 -117.1825 C   0  0  1  0  0  0  0  0  0  0  0  0
   22.5617  113.8116 -118.2144 C   0  0  0  0  0  0  0  0  0  0  0  0
   26.6889  115.1556 -118.6254 C   0  0  0  0  0  0  0  0  0  0  0  0
   27.6996  114.7990 -117.4901 C   0  0  0  0  0  0  0  0  0  0  0  0
   24.6085  116.0330 -116.7760 C   0  0  0  0  0  0  0  0  0  0  0  0
   24.4703  118.1635 -116.8237 C   0  0  0  0  0  0  0  0  0  0  0  0
   28.0646  121.5675 -111.0309 C   0  0  0  0  0  0  0  0  0  0  0  0
   26.1346  118.6425 -114.8703 C   0  0  0  0  0  0  0  0  0  0  0  0
   17.2781  109.5746 -118.2317 Cl  0  0  0  0  0  0  0  0  0  0  0  0
   18.2057  111.9404 -121.3058 C   0  0  0  0  0  0  0  0  0  0  0  0
   17.4970  111.1522 -120.4089 C   0  0  0  0  0  0  0  0  0  0  0  0
   18.1514  110.6148 -119.3176 C   0  0  0  0  0  0  0  0  0  0  0  0
   19.4954  110.8439 -119.0948 C   0  0  0  0  0  0  0  0  0  0  0  0
   20.2267  111.6287 -119.9992 C   0  0  0  0  0  0  0  0  0  0  0  0
   19.5660  112.1713 -121.1146 C   0  0  0  0  0  0  0  0  0  0  0  0
   20.2755  112.9710 -122.0626 N   0  0  0  0  0  0  0  0  0  0  0  0
   20.3977  112.8848 -123.3897 C   0  0  0  0  0  0  0  0  0  0  0  0
   21.2791  113.7493 -123.8067 N   0  0  0  0  0  0  0  0  0  0  0  0
   21.7103  114.3978 -122.6964 N   0  0  0  0  0  0  0  0  0  0  0  0
   21.1113  113.9462 -121.6378 N   0  0  0  0  0  0  0  0  0  0  0  0
   22.0260  112.4599 -118.4982 C   0  0  0  0  0  0  0  0  0  0  0  0
   22.3993  114.7597 -118.9940 O   0  0  0  0  0  0  0  0  0  0  0  0
   23.2982  113.9399 -117.0904 N   0  0  0  0  0  0  0  0  0  0  0  0
   24.0450  117.0195 -117.4500 N   0  0  0  0  0  0  0  0  0  0  0  0
   25.2875  117.8486 -115.7608 C   0  0  0  0  0  0  0  0  0  0  0  0
   25.3333  116.4824 -115.7381 N   0  0  0  0  0  0  0  0  0  0  0  0
   25.6037  119.7641 -114.2266 C   0  0  0  0  0  0  0  0  0  0  0  0
   26.3432  120.4586 -113.2881 C   0  0  0  0  0  0  0  0  0  0  0  0
   27.6318  120.0369 -112.9585 C   0  0  0  0  0  0  0  0  0  0  0  0
   28.1775  118.9321 -113.6172 C   0  0  0  0  0  0  0  0  0  0  0  0
   27.4518  118.2361 -114.5806 C   0  0  0  0  0  0  0  0  0  0  0  0
   28.4574  120.7034 -112.0131 N   0  0  0  0  0  0  0  0  0  0  0  0
   27.0770  121.4624 -110.3318 O   0  0  0  0  0  0  0  0  0  0  0  0
   28.9351  122.5941 -110.9533 O   0  0  0  0  0  0  0  0  0  0  0  0
   30.3044  122.2370 -110.6267 C   0  0  0  0  0  0  0  0  0  0  0  0
   28.8242  115.8189 -117.2410 C   0  0  0  0  0  0  0  0  0  0  0  0
   28.4084  117.1985 -116.7017 C   0  0  1  0  0  0  0  0  0  0  0  0
   28.0023  117.1509 -115.3044 N   0  0  0  0  0  0  0  0  0  0  0  0
   29.5080  118.2403 -116.8373 C   0  0  0  0  0  0  0  0  0  0  0  0
   29.3174  119.3891 -117.1229 O   0  0  0  0  0  0  0  0  0  0  0  0
   30.7096  117.7007 -116.6626 O   0  0  0  0  0  0  0  0  0  0  0  0
   31.8469  118.4035 -117.2345 C   0  0  0  0  0  0  0  0  0  0  0  0
  1 16  1  0
  1 23  2  0
  2  3  1  6
  5  2  1  6
  3  7  1  0
  3 25  1  6
  4 23  1  0
  4 24  2  0
  4 25  1  0
  6  5  1  6
  6 38  1  0
  7 26  2  0
  7 28  1  0
  8 26  1  0
  8 27  2  0
  9 34  1  0
  9 35  2  0
  9 36  1  0
 10 27  1  0
 10 29  1  0
 10 33  2  0
 11 14  1  0
 12 13  2  0
 12 17  1  0
 13 14  1  0
 14 15  2  0
 15 16  1  0
 16 17  2  0
 17 18  1  0
 18 19  1  0
 18 22  1  0
 19 20  2  0
 20 21  1  0
 21 22  2  0
 27 28  1  0
 29 30  2  0
 30 31  1  0
 31 32  2  0
 31 34  1  0
 32 33  1  0
 33 40  1  0
 37 36  1  6
 38 39  1  1
 39 40  1  0
 39 41  1  1
 41 42  2  0
 41 43  1  0
 44 43  1  6
M  END
$$$$
