
     RDKit          3D

 44 48  0  0  0  0  0  0  0  0999 V2000
   -2.0330  -37.9356   46.2261 C   0  0  0  0  0  0  0  0  0  0  0  0
   -4.1595  -40.5610   46.7754 C   0  0  0  0  0  0  0  0  0  0  0  0
   -4.7174  -40.9117   45.3880 C   0  0  1  0  0  0  0  0  0  0  0  0
   -3.7480  -38.8465   44.5847 C   0  0  0  0  0  0  0  0  0  0  0  0
   -4.7658  -41.4568   47.9257 C   0  0  0  0  0  0  0  0  0  0  0  0
   -4.7201  -43.0010   47.6990 C   0  0  0  0  0  0  0  0  0  0  0  0
   -6.2166  -40.9313   45.4484 C   0  0  0  0  0  0  0  0  0  0  0  0
   -8.2443  -40.4407   45.9049 C   0  0  0  0  0  0  0  0  0  0  0  0
  -12.1791  -46.9185   46.7792 C   0  0  0  0  0  0  0  0  0  0  0  0
   -9.2128  -42.8586   45.7291 C   0  0  0  0  0  0  0  0  0  0  0  0
   -1.4248  -33.5264   43.6268 Cl  0  0  0  0  0  0  0  0  0  0  0  0
    0.7858  -36.8314   43.9399 C   0  0  0  0  0  0  0  0  0  0  0  0
    0.3532  -35.5551   43.6056 C   0  0  0  0  0  0  0  0  0  0  0  0
   -0.8536  -35.0995   44.0995 C   0  0  0  0  0  0  0  0  0  0  0  0
   -1.6416  -35.8826   44.9205 C   0  0  0  0  0  0  0  0  0  0  0  0
   -1.2225  -37.1788   45.2568 C   0  0  0  0  0  0  0  0  0  0  0  0
    0.0014  -37.6485   44.7506 C   0  0  0  0  0  0  0  0  0  0  0  0
    0.4616  -38.9643   45.0642 N   0  0  0  0  0  0  0  0  0  0  0  0
   -0.1888  -40.1127   45.2692 C   0  0  0  0  0  0  0  0  0  0  0  0
    0.6467  -41.0226   45.6841 N   0  0  0  0  0  0  0  0  0  0  0  0
    1.8583  -40.4149   45.7289 N   0  0  0  0  0  0  0  0  0  0  0  0
    1.7663  -39.1767   45.3524 N   0  0  0  0  0  0  0  0  0  0  0  0
   -3.1175  -38.6496   45.9108 C   0  0  0  0  0  0  0  0  0  0  0  0
   -3.9369  -37.9069   43.8009 O   0  0  0  0  0  0  0  0  0  0  0  0
   -4.1702  -40.0972   44.3024 N   0  0  0  0  0  0  0  0  0  0  0  0
   -6.9830  -39.9125   45.7939 N   0  0  0  0  0  0  0  0  0  0  0  0
   -8.2242  -41.7863   45.6120 C   0  0  0  0  0  0  0  0  0  0  0  0
   -6.9232  -42.0637   45.2966 N   0  0  0  0  0  0  0  0  0  0  0  0
  -10.4912  -42.6840   45.1911 C   0  0  0  0  0  0  0  0  0  0  0  0
  -11.4026  -43.7229   45.1790 C   0  0  0  0  0  0  0  0  0  0  0  0
  -11.0502  -44.9712   45.6933 C   0  0  0  0  0  0  0  0  0  0  0  0
   -9.7829  -45.1443   46.2557 C   0  0  0  0  0  0  0  0  0  0  0  0
   -8.8624  -44.1002   46.2943 C   0  0  0  0  0  0  0  0  0  0  0  0
  -11.9339  -46.0837   45.7263 N   0  0  0  0  0  0  0  0  0  0  0  0
  -12.3016  -46.5933   47.9430 O   0  0  0  0  0  0  0  0  0  0  0  0
  -12.2483  -48.1924   46.3432 O   0  0  0  0  0  0  0  0  0  0  0  0
  -11.7178  -48.4337   45.0129 C   0  0  0  0  0  0  0  0  0  0  0  0
   -5.7282  -43.8335   48.5100 C   0  0  0  0  0  0  0  0  0  0  0  0
   -7.2187  -43.6354   48.1846 C   0  0  1  0  0  0  0  0  0  0  0  0
   -7.5947  -44.2321   46.9109 N   0  0  0  0  0  0  0  0  0  0  0  0
   -8.1365  -44.1996   49.2580 C   0  0  0  0  0  0  0  0  0  0  0  0
   -7.8250  -44.3371   50.4078 O   0  0  0  0  0  0  0  0  0  0  0  0
   -9.3024  -44.5798   48.7466 O   0  0  0  0  0  0  0  0  0  0  0  0
   -9.3968  -45.9380   48.2361 C   0  0  0  0  0  0  0  0  0  0  0  0
  1 16  1  0
  1 23  2  0
  2  3  1  6
  5  2  1  6
  3  7  1  0
  3 25  1  6
  4 23  1  0
  4 24  2  0
  4 25  1  0
  6  5  1  6
  6 38  1  0
  7 26  2  0
  7 28  1  0
  8 26  1  0
  8 27  2  0
  9 34  1  0
  9 35  2  0
  9 36  1  0
 10 27  1  0
 10 29  1  0
 10 33  2  0
 11 14  1  0
 12 13  2  0
 12 17  1  0
 13 14  1  0
 14 15  2  0
 15 16  1  0
 16 17  2  0
 17 18  1  0
 18 19  1  0
 18 22  1  0
 19 20  2  0
 20 21  1  0
 21 22  2  0
 27 28  1  0
 29 30  2  0
 30 31  1  0
 31 32  2  0
 31 34  1  0
 32 33  1  0
 33 40  1  0
 37 36  1  6
 38 39  1  1
 39 40  1  0
 39 41  1  1
 41 42  2  0
 41 43  1  0
 44 43  1  6
M  END
$$$$
