
     RDKit          3D

 44 48  0  0  0  0  0  0  0  0999 V2000
   38.2622   15.3692   62.4448 C   0  0  0  0  0  0  0  0  0  0  0  0
   35.9284   13.9051   60.2057 C   0  0  0  0  0  0  0  0  0  0  0  0
   37.3883   14.1557   59.7995 C   0  0  1  0  0  0  0  0  0  0  0  0
   38.2733   12.9400   61.6939 C   0  0  0  0  0  0  0  0  0  0  0  0
   34.9269   14.9491   59.5728 C   0  0  0  0  0  0  0  0  0  0  0  0
   35.0300   15.1609   58.0293 C   0  0  0  0  0  0  0  0  0  0  0  0
   37.7325   15.5939   60.0534 C   0  0  0  0  0  0  0  0  0  0  0  0
   37.8721   17.5289   60.9462 C   0  0  0  0  0  0  0  0  0  0  0  0
   39.2763   22.0879   54.8464 C   0  0  0  0  0  0  0  0  0  0  0  0
   38.1413   18.8901   58.7350 C   0  0  0  0  0  0  0  0  0  0  0  0
   42.7122   14.1087   60.1698 Cl  0  0  0  0  0  0  0  0  0  0  0  0
   40.8347   17.5800   60.7461 C   0  0  0  0  0  0  0  0  0  0  0  0
   41.7510   16.6243   60.3281 C   0  0  0  0  0  0  0  0  0  0  0  0
   41.5306   15.2961   60.6369 C   0  0  0  0  0  0  0  0  0  0  0  0
   40.4185   14.8939   61.3508 C   0  0  0  0  0  0  0  0  0  0  0  0
   39.4904   15.8503   61.7897 C   0  0  0  0  0  0  0  0  0  0  0  0
   39.7148   17.2034   61.4837 C   0  0  0  0  0  0  0  0  0  0  0  0
   38.7972   18.2093   61.9171 N   0  0  0  0  0  0  0  0  0  0  0  0
   38.0776   18.3400   63.0346 C   0  0  0  0  0  0  0  0  0  0  0  0
   37.2592   19.3470   62.9148 N   0  0  0  0  0  0  0  0  0  0  0  0
   37.4884   19.8610   61.6808 N   0  0  0  0  0  0  0  0  0  0  0  0
   38.4164   19.1919   61.0687 N   0  0  0  0  0  0  0  0  0  0  0  0
   37.9275   14.0819   62.5721 C   0  0  0  0  0  0  0  0  0  0  0  0
   38.5506   11.8221   62.1483 O   0  0  0  0  0  0  0  0  0  0  0  0
   38.3381   13.2004   60.3710 N   0  0  0  0  0  0  0  0  0  0  0  0
   37.6744   16.2003   61.2255 N   0  0  0  0  0  0  0  0  0  0  0  0
   38.0588   17.7082   59.5935 C   0  0  0  0  0  0  0  0  0  0  0  0
   37.9933   16.4535   59.0546 N   0  0  0  0  0  0  0  0  0  0  0  0
   39.0138   19.9299   59.0693 C   0  0  0  0  0  0  0  0  0  0  0  0
   39.2019   20.9995   58.2146 C   0  0  0  0  0  0  0  0  0  0  0  0
   38.5301   21.0473   56.9926 C   0  0  0  0  0  0  0  0  0  0  0  0
   37.6371   20.0239   56.6644 C   0  0  0  0  0  0  0  0  0  0  0  0
   37.4216   18.9513   57.5257 C   0  0  0  0  0  0  0  0  0  0  0  0
   38.6623   22.1169   56.0662 N   0  0  0  0  0  0  0  0  0  0  0  0
   39.1414   21.2352   53.9921 O   0  0  0  0  0  0  0  0  0  0  0  0
   40.0924   23.1539   54.7225 O   0  0  0  0  0  0  0  0  0  0  0  0
   40.4468   23.8245   55.9610 C   0  0  0  0  0  0  0  0  0  0  0  0
   34.4669   16.4871   57.4898 C   0  0  0  0  0  0  0  0  0  0  0  0
   35.1938   17.7763   57.9098 C   0  0  1  0  0  0  0  0  0  0  0  0
   36.4792   17.9328   57.2442 N   0  0  0  0  0  0  0  0  0  0  0  0
   34.3720   19.0287   57.6471 C   0  0  0  0  0  0  0  0  0  0  0  0
   34.8396   20.1213   57.4876 O   0  0  0  0  0  0  0  0  0  0  0  0
   33.0695   18.7685   57.6816 O   0  0  0  0  0  0  0  0  0  0  0  0
   32.5697   17.7405   56.7827 C   0  0  0  0  0  0  0  0  0  0  0  0
  1 16  1  0
  1 23  2  0
  2  3  1  6
  5  2  1  6
  3  7  1  0
  3 25  1  1
  4 23  1  0
  4 24  2  0
  4 25  1  0
  6  5  1  6
  6 38  1  0
  7 26  2  0
  7 28  1  0
  8 26  1  0
  8 27  2  0
  9 34  1  0
  9 35  2  0
  9 36  1  0
 10 27  1  0
 10 29  1  0
 10 33  2  0
 11 14  1  0
 12 13  2  0
 12 17  1  0
 13 14  1  0
 14 15  2  0
 15 16  1  0
 16 17  2  0
 17 18  1  0
 18 19  1  0
 18 22  1  0
 19 20  2  0
 20 21  1  0
 21 22  2  0
 27 28  1  0
 29 30  2  0
 30 31  1  0
 31 32  2  0
 31 34  1  0
 32 33  1  0
 33 40  1  0
 37 36  1  6
 38 39  1  1
 39 40  1  0
 39 41  1  6
 41 42  2  0
 41 43  1  0
 44 43  1  6
M  END
$$$$
