
     RDKit          3D

 44 48  0  0  0  0  0  0  0  0999 V2000
   91.9253   16.9435   65.0783 C   0  0  0  0  0  0  0  0  0  0  0  0
   88.5001   19.4794   61.4432 C   0  0  0  0  0  0  0  0  0  0  0  0
   88.2251   19.2676   62.9395 C   0  0  1  0  0  0  0  0  0  0  0  0
   90.1915   17.9961   63.5450 C   0  0  0  0  0  0  0  0  0  0  0  0
   87.8221   20.7865   60.8730 C   0  0  0  0  0  0  0  0  0  0  0  0
   88.0872   22.1065   61.6637 C   0  0  0  0  0  0  0  0  0  0  0  0
   86.7497   19.3740   63.1910 C   0  0  0  0  0  0  0  0  0  0  0  0
   84.6307   19.1951   62.9941 C   0  0  0  0  0  0  0  0  0  0  0  0
   82.1971   25.6469   66.5011 C   0  0  0  0  0  0  0  0  0  0  0  0
   83.9979   21.3784   64.2777 C   0  0  0  0  0  0  0  0  0  0  0  0
   96.4059   18.8135   66.8086 Cl  0  0  0  0  0  0  0  0  0  0  0  0
   93.2777   20.4867   64.9859 C   0  0  0  0  0  0  0  0  0  0  0  0
   94.5214   20.2966   65.5730 C   0  0  0  0  0  0  0  0  0  0  0  0
   94.8749   19.0363   66.0144 C   0  0  0  0  0  0  0  0  0  0  0  0
   94.0213   17.9580   65.8844 C   0  0  0  0  0  0  0  0  0  0  0  0
   92.7567   18.1381   65.3038 C   0  0  0  0  0  0  0  0  0  0  0  0
   92.3905   19.4202   64.8600 C   0  0  0  0  0  0  0  0  0  0  0  0
   91.1098   19.6474   64.2686 N   0  0  0  0  0  0  0  0  0  0  0  0
   90.5250   19.1373   63.1816 C   0  0  0  0  0  0  0  0  0  0  0  0
   89.4073   19.7655   62.9485 N   0  0  0  0  0  0  0  0  0  0  0  0
   89.2951   20.6917   63.9329 N   0  0  0  0  0  0  0  0  0  0  0  0
   90.3086   20.6300   64.7406 N   0  0  0  0  0  0  0  0  0  0  0  0
   90.7645   16.9441   64.4166 C   0  0  0  0  0  0  0  0  0  0  0  0
   90.9036   18.8112   62.9438 O   0  0  0  0  0  0  0  0  0  0  0  0
   88.8442   18.0635   63.4945 N   0  0  0  0  0  0  0  0  0  0  0  0
   85.8214   18.6132   62.6394 N   0  0  0  0  0  0  0  0  0  0  0  0
   84.8582   20.3080   63.7728 C   0  0  0  0  0  0  0  0  0  0  0  0
   86.2170   20.3796   63.9051 N   0  0  0  0  0  0  0  0  0  0  0  0
   82.8147   21.0577   64.9494 C   0  0  0  0  0  0  0  0  0  0  0  0
   82.0474   22.0425   65.5424 C   0  0  0  0  0  0  0  0  0  0  0  0
   82.4551   23.3759   65.4903 C   0  0  0  0  0  0  0  0  0  0  0  0
   83.6232   23.7057   64.7981 C   0  0  0  0  0  0  0  0  0  0  0  0
   84.3944   22.7263   64.1775 C   0  0  0  0  0  0  0  0  0  0  0  0
   81.7162   24.4450   66.0655 N   0  0  0  0  0  0  0  0  0  0  0  0
   83.0274   26.3356   65.9431 O   0  0  0  0  0  0  0  0  0  0  0  0
   81.6246   25.9658   67.6794 O   0  0  0  0  0  0  0  0  0  0  0  0
   80.1833   25.8004   67.7457 C   0  0  0  0  0  0  0  0  0  0  0  0
   87.0645   23.2367   61.4547 C   0  0  0  0  0  0  0  0  0  0  0  0
   85.6356   22.9888   61.9681 C   0  0  1  0  0  0  0  0  0  0  0  0
   85.5491   23.0400   63.4206 N   0  0  0  0  0  0  0  0  0  0  0  0
   84.6262   23.9750   61.4012 C   0  0  0  0  0  0  0  0  0  0  0  0
   84.7110   24.4786   60.3163 O   0  0  0  0  0  0  0  0  0  0  0  0
   83.6751   24.2557   62.2856 O   0  0  0  0  0  0  0  0  0  0  0  0
   83.8354   23.7249   63.6300 C   0  0  0  0  0  0  0  0  0  0  0  0
  1 16  1  0
  1 23  2  0
  2  3  1  6
  5  2  1  6
  3  7  1  0
  3 25  1  6
  4 23  1  0
  4 24  2  0
  4 25  1  0
  6  5  1  6
  6 38  1  0
  7 26  2  0
  7 28  1  0
  8 26  1  0
  8 27  2  0
  9 34  1  0
  9 35  2  0
  9 36  1  0
 10 27  1  0
 10 29  1  0
 10 33  2  0
 11 14  1  0
 12 13  2  0
 12 17  1  0
 13 14  1  0
 14 15  2  0
 15 16  1  0
 16 17  2  0
 17 18  1  0
 18 19  1  0
 18 22  1  0
 19 20  2  0
 20 21  1  0
 21 22  2  0
 27 28  1  0
 29 30  2  0
 30 31  1  0
 31 32  2  0
 31 34  1  0
 32 33  1  0
 33 40  1  0
 37 36  1  6
 38 39  1  1
 39 40  1  0
 39 41  1  6
 41 42  2  0
 41 43  1  0
 44 43  1  6
M  END
$$$$
