
     RDKit          3D

 44 48  0  0  0  0  0  0  0  0999 V2000
-113529.7109-104718.5234-252718.2188 C   0  0  0  0  0  0  0  0  0  0  0  0
-113531.6328-104720.2500-252720.3438 C   0  0  0  0  0  0  0  0  0  0  0  0
-113531.2812-104721.6250-252719.7344 C   0  0  1  0  0  0  0  0  0  0  0  0
-113529.0938-104720.8203-252719.1719 C   0  0  0  0  0  0  0  0  0  0  0  0
-113533.1875-104720.0625-252720.5625 C   0  0  0  0  0  0  0  0  0  0  0  0
-113534.0938-104720.3281-252719.2656 C   0  0  0  0  0  0  0  0  0  0  0  0
-113531.9766-104722.6953-252720.5312 C   0  0  0  0  0  0  0  0  0  0  0  0
-113532.7578-104723.8594-252722.1094 C   0  0  0  0  0  0  0  0  0  0  0  0
-113539.2656-104726.8828-252719.3594 C   0  0  0  0  0  0  0  0  0  0  0  0
-113534.7500-104724.9609-252720.7969 C   0  0  0  0  0  0  0  0  0  0  0  0
-113532.1250-104715.7188-252721.7656 Cl  0  0  0  0  0  0  0  0  0  0  0  0
-113533.0938-104716.8906-252718.0625 C   0  0  0  0  0  0  0  0  0  0  0  0
-113533.2031-104716.3203-252719.3281 C   0  0  0  0  0  0  0  0  0  0  0  0
-113532.0938-104716.4531-252720.1875 C   0  0  0  0  0  0  0  0  0  0  0  0
-113530.9453-104717.1562-252719.8281 C   0  0  0  0  0  0  0  0  0  0  0  0
-113530.8828-104717.7031-252718.5625 C   0  0  0  0  0  0  0  0  0  0  0  0
-113531.9844-104717.5469-252717.6406 C   0  0  0  0  0  0  0  0  0  0  0  0
-113531.9531-104718.0781-252716.3750 N   0  0  0  0  0  0  0  0  0  0  0  0
-113531.6172-104717.5703-252715.1719 C   0  0  0  0  0  0  0  0  0  0  0  0
-113531.6094-104718.4922-252714.2344 N   0  0  0  0  0  0  0  0  0  0  0  0
-113531.8984-104719.6562-252714.8750 N   0  0  0  0  0  0  0  0  0  0  0  0
-113532.1172-104719.4297-252716.1719 N   0  0  0  0  0  0  0  0  0  0  0  0
-113529.6953-104719.8672-252718.2031 C   0  0  0  0  0  0  0  0  0  0  0  0
-113527.9766-104720.6406-252719.6094 O   0  0  0  0  0  0  0  0  0  0  0  0
-113529.8516-104721.8516-252719.5625 N   0  0  0  0  0  0  0  0  0  0  0  0
-113531.8125-104722.9297-252721.8438 N   0  0  0  0  0  0  0  0  0  0  0  0
-113533.4844-104724.1953-252721.0312 C   0  0  0  0  0  0  0  0  0  0  0  0
-113532.9375-104723.4531-252720.0000 N   0  0  0  0  0  0  0  0  0  0  0  0
-113534.8438-104726.2578-252721.3281 C   0  0  0  0  0  0  0  0  0  0  0  0
-113535.9297-104727.0547-252721.0312 C   0  0  0  0  0  0  0  0  0  0  0  0
-113536.9141-104726.6094-252720.1875 C   0  0  0  0  0  0  0  0  0  0  0  0
-113536.8359-104725.2969-252719.6875 C   0  0  0  0  0  0  0  0  0  0  0  0
-113535.7578-104724.4609-252719.9688 C   0  0  0  0  0  0  0  0  0  0  0  0
-113538.0859-104727.3359-252719.8594 N   0  0  0  0  0  0  0  0  0  0  0  0
-113539.6719-104727.0000-252718.2188 O   0  0  0  0  0  0  0  0  0  0  0  0
-113539.9453-104726.2578-252720.3281 O   0  0  0  0  0  0  0  0  0  0  0  0
-113540.2891-104727.0703-252721.5156 C   0  0  0  0  0  0  0  0  0  0  0  0
-113535.5625-104720.6484-252719.5781 C   0  0  0  0  0  0  0  0  0  0  0  0
-113535.8516-104721.9531-252720.3438 C   0  0  1  0  0  0  0  0  0  0  0  0
-113535.6641-104723.1406-252719.5469 N   0  0  0  0  0  0  0  0  0  0  0  0
-113537.2656-104721.9844-252720.9062 C   0  0  0  0  0  0  0  0  0  0  0  0
-113538.2422-104722.2656-252720.2656 O   0  0  0  0  0  0  0  0  0  0  0  0
-113537.2891-104721.7266-252722.1719 O   0  0  0  0  0  0  0  0  0  0  0  0
-113536.1719-104722.1797-252723.0469 C   0  0  0  0  0  0  0  0  0  0  0  0
  1 16  1  0
  1 23  2  0
  2  3  1  6
  5  2  1  6
  3  7  1  0
  3 25  1  6
  4 23  1  0
  4 24  2  0
  4 25  1  0
  6  5  1  6
  6 38  1  0
  7 26  2  0
  7 28  1  0
  8 26  1  0
  8 27  2  0
  9 34  1  0
  9 35  2  0
  9 36  1  0
 10 27  1  0
 10 29  1  0
 10 33  2  0
 11 14  1  0
 12 13  2  0
 12 17  1  0
 13 14  1  0
 14 15  2  0
 15 16  1  0
 16 17  2  0
 17 18  1  0
 18 19  1  0
 18 22  1  0
 19 20  2  0
 20 21  1  0
 21 22  2  0
 27 28  1  0
 29 30  2  0
 30 31  1  0
 31 32  2  0
 31 34  1  0
 32 33  1  0
 33 40  1  0
 37 36  1  6
 38 39  1  1
 39 40  1  0
 39 41  1  1
 41 42  2  0
 41 43  1  0
 44 43  1  6
M  END
$$$$
