
     RDKit          3D

 44 48  0  0  0  0  0  0  0  0999 V2000
    7.4566   77.6657   31.5586 C   0  0  0  0  0  0  0  0  0  0  0  0
    6.3853   73.7482   29.8768 C   0  0  0  0  0  0  0  0  0  0  0  0
    6.4606   73.4262   31.3767 C   0  0  1  0  0  0  0  0  0  0  0  0
    5.8061   75.7352   31.6769 C   0  0  0  0  0  0  0  0  0  0  0  0
    6.6993   72.4987   28.9638 C   0  0  0  0  0  0  0  0  0  0  0  0
    5.9023   71.1932   29.2772 C   0  0  0  0  0  0  0  0  0  0  0  0
    7.7628   72.7414   31.6709 C   0  0  0  0  0  0  0  0  0  0  0  0
    9.8310   72.2090   31.6702 C   0  0  0  0  0  0  0  0  0  0  0  0
   10.5725   64.6485   32.1679 C   0  0  0  0  0  0  0  0  0  0  0  0
    9.5171   69.6788   32.2310 C   0  0  0  0  0  0  0  0  0  0  0  0
    8.6662   82.6594   31.1508 Cl  0  0  0  0  0  0  0  0  0  0  0  0
    6.3295   80.2387   29.0090 C   0  0  0  0  0  0  0  0  0  0  0  0
    7.0376   81.3509   29.4441 C   0  0  0  0  0  0  0  0  0  0  0  0
    7.8321   81.2486   30.5694 C   0  0  0  0  0  0  0  0  0  0  0  0
    7.9415   80.0648   31.2730 C   0  0  0  0  0  0  0  0  0  0  0  0
    7.2223   78.9362   30.8515 C   0  0  0  0  0  0  0  0  0  0  0  0
    6.4073   79.0382   29.7112 C   0  0  0  0  0  0  0  0  0  0  0  0
    5.6540   77.9143   29.2521 N   0  0  0  0  0  0  0  0  0  0  0  0
    4.8929   77.0259   29.8967 C   0  0  0  0  0  0  0  0  0  0  0  0
    4.5313   76.0801   29.0763 N   0  0  0  0  0  0  0  0  0  0  0  0
    5.0833   76.4016   27.8799 N   0  0  0  0  0  0  0  0  0  0  0  0
    5.7574   77.5069   27.9662 N   0  0  0  0  0  0  0  0  0  0  0  0
    6.5036   76.9489   32.1616 C   0  0  0  0  0  0  0  0  0  0  0  0
    4.8934   75.7911   30.8420 O   0  0  0  0  0  0  0  0  0  0  0  0
    6.1715   74.5671   32.2463 N   0  0  0  0  0  0  0  0  0  0  0  0
    8.9624   73.2471   31.4466 N   0  0  0  0  0  0  0  0  0  0  0  0
    9.1367   71.0788   32.0404 C   0  0  0  0  0  0  0  0  0  0  0  0
    7.8231   71.4570   32.0601 N   0  0  0  0  0  0  0  0  0  0  0  0
   10.6120   69.3624   33.0405 C   0  0  0  0  0  0  0  0  0  0  0  0
   10.9181   68.0475   33.3360 C   0  0  0  0  0  0  0  0  0  0  0  0
   10.1237   67.0136   32.8389 C   0  0  0  0  0  0  0  0  0  0  0  0
    9.0434   67.3223   32.0082 C   0  0  0  0  0  0  0  0  0  0  0  0
    8.7366   68.6414   31.6845 C   0  0  0  0  0  0  0  0  0  0  0  0
   10.3795   65.6383   33.0891 N   0  0  0  0  0  0  0  0  0  0  0  0
   10.1416   63.5145   32.2280 O   0  0  0  0  0  0  0  0  0  0  0  0
   11.3459   65.1067   31.1631 O   0  0  0  0  0  0  0  0  0  0  0  0
   11.4924   66.5496   31.0873 C   0  0  0  0  0  0  0  0  0  0  0  0
    6.5341   69.8803   28.7832 C   0  0  0  0  0  0  0  0  0  0  0  0
    7.8616   69.4561   29.4347 C   0  0  1  0  0  0  0  0  0  0  0  0
    7.6848   68.9776   30.7984 N   0  0  0  0  0  0  0  0  0  0  0  0
    8.5862   68.3758   28.6469 C   0  0  0  0  0  0  0  0  0  0  0  0
    9.3651   67.5997   29.1252 O   0  0  0  0  0  0  0  0  0  0  0  0
    8.2951   68.4439   27.3522 O   0  0  0  0  0  0  0  0  0  0  0  0
    7.3185   69.4386   26.9386 C   0  0  0  0  0  0  0  0  0  0  0  0
  1 16  1  0
  1 23  2  0
  2  3  1  6
  5  2  1  6
  3  7  1  0
  3 25  1  1
  4 23  1  0
  4 24  2  0
  4 25  1  0
  6  5  1  6
  6 38  1  0
  7 26  2  0
  7 28  1  0
  8 26  1  0
  8 27  2  0
  9 34  1  0
  9 35  2  0
  9 36  1  0
 10 27  1  0
 10 29  1  0
 10 33  2  0
 11 14  1  0
 12 13  2  0
 12 17  1  0
 13 14  1  0
 14 15  2  0
 15 16  1  0
 16 17  2  0
 17 18  1  0
 18 19  1  0
 18 22  1  0
 19 20  2  0
 20 21  1  0
 21 22  2  0
 27 28  1  0
 29 30  2  0
 30 31  1  0
 31 32  2  0
 31 34  1  0
 32 33  1  0
 33 40  1  0
 37 36  1  6
 38 39  1  1
 39 40  1  0
 39 41  1  6
 41 42  2  0
 41 43  1  0
 44 43  1  6
M  END
$$$$
