
     RDKit          3D

 44 48  0  0  0  0  0  0  0  0999 V2000
   27.5455  -40.6031   69.9472 C   0  0  0  0  0  0  0  0  0  0  0  0
   23.7916  -39.7898   67.3937 C   0  0  0  0  0  0  0  0  0  0  0  0
   24.1022  -39.6498   68.8914 C   0  0  1  0  0  0  0  0  0  0  0  0
   25.1295  -40.9257   70.6709 C   0  0  0  0  0  0  0  0  0  0  0  0
   23.5337  -38.4012   66.6874 C   0  0  0  0  0  0  0  0  0  0  0  0
   24.6135  -37.2966   66.9147 C   0  0  0  0  0  0  0  0  0  0  0  0
   23.0483  -38.7995   69.5376 C   0  0  0  0  0  0  0  0  0  0  0  0
   21.1685  -37.9336   70.0642 C   0  0  0  0  0  0  0  0  0  0  0  0
   23.3195  -30.8189   72.2398 C   0  0  0  0  0  0  0  0  0  0  0  0
   22.0721  -35.5814   70.7468 C   0  0  0  0  0  0  0  0  0  0  0  0
   25.0101  -39.9938   65.5011 Cl  0  0  0  0  0  0  0  0  0  0  0  0
   28.1800  -38.1771   67.1005 C   0  0  0  0  0  0  0  0  0  0  0  0
   27.1360  -38.5108   66.2481 C   0  0  0  0  0  0  0  0  0  0  0  0
   26.2769  -39.5336   66.5999 C   0  0  0  0  0  0  0  0  0  0  0  0
   26.4295  -40.2329   67.7815 C   0  0  0  0  0  0  0  0  0  0  0  0
   27.4872  -39.9142   68.6467 C   0  0  0  0  0  0  0  0  0  0  0  0
   28.3676  -38.8789   68.2889 C   0  0  0  0  0  0  0  0  0  0  0  0
   29.4608  -38.5271   69.1390 N   0  0  0  0  0  0  0  0  0  0  0  0
   29.9438  -37.3447   69.5295 C   0  0  0  0  0  0  0  0  0  0  0  0
   31.0566  -37.5195   70.1846 N   0  0  0  0  0  0  0  0  0  0  0  0
   31.2631  -38.8598   70.2056 N   0  0  0  0  0  0  0  0  0  0  0  0
   30.3081  -39.4823   69.5861 N   0  0  0  0  0  0  0  0  0  0  0  0
   26.5443  -41.3166   70.4705 C   0  0  0  0  0  0  0  0  0  0  0  0
   24.6693  -40.6764   71.7930 O   0  0  0  0  0  0  0  0  0  0  0  0
   24.3476  -40.9225   69.5705 N   0  0  0  0  0  0  0  0  0  0  0  0
   21.7547  -39.0659   69.5578 N   0  0  0  0  0  0  0  0  0  0  0  0
   22.1286  -36.9903   70.3558 C   0  0  0  0  0  0  0  0  0  0  0  0
   23.3190  -37.5819   70.0367 N   0  0  0  0  0  0  0  0  0  0  0  0
   21.2570  -35.1905   71.8130 C   0  0  0  0  0  0  0  0  0  0  0  0
   21.2779  -33.8903   72.2811 C   0  0  0  0  0  0  0  0  0  0  0  0
   22.1298  -32.9496   71.7011 C   0  0  0  0  0  0  0  0  0  0  0  0
   22.9278  -33.3279   70.6184 C   0  0  0  0  0  0  0  0  0  0  0  0
   22.9008  -34.6288   70.1224 C   0  0  0  0  0  0  0  0  0  0  0  0
   22.2008  -31.5931   72.1187 N   0  0  0  0  0  0  0  0  0  0  0  0
   24.4405  -31.2084   72.4984 O   0  0  0  0  0  0  0  0  0  0  0  0
   22.9991  -29.5233   72.0487 O   0  0  0  0  0  0  0  0  0  0  0  0
   24.0759  -28.5704   72.2522 C   0  0  0  0  0  0  0  0  0  0  0  0
   24.1530  -35.8454   66.6938 C   0  0  0  0  0  0  0  0  0  0  0  0
   23.1017  -35.2904   67.6703 C   0  0  1  0  0  0  0  0  0  0  0  0
   23.6544  -35.0224   68.9903 N   0  0  0  0  0  0  0  0  0  0  0  0
   22.4451  -34.0144   67.1668 C   0  0  0  0  0  0  0  0  0  0  0  0
   22.5298  -33.6110   66.0408 O   0  0  0  0  0  0  0  0  0  0  0  0
   21.8208  -33.3720   68.1482 O   0  0  0  0  0  0  0  0  0  0  0  0
   22.2924  -32.0367   68.4786 C   0  0  0  0  0  0  0  0  0  0  0  0
  1 16  1  0
  1 23  2  0
  2  3  1  6
  5  2  1  6
  3  7  1  0
  3 25  1  1
  4 23  1  0
  4 24  2  0
  4 25  1  0
  6  5  1  6
  6 38  1  0
  7 26  2  0
  7 28  1  0
  8 26  1  0
  8 27  2  0
  9 34  1  0
  9 35  2  0
  9 36  1  0
 10 27  1  0
 10 29  1  0
 10 33  2  0
 11 14  1  0
 12 13  2  0
 12 17  1  0
 13 14  1  0
 14 15  2  0
 15 16  1  0
 16 17  2  0
 17 18  1  0
 18 19  1  0
 18 22  1  0
 19 20  2  0
 20 21  1  0
 21 22  2  0
 27 28  1  0
 29 30  2  0
 30 31  1  0
 31 32  2  0
 31 34  1  0
 32 33  1  0
 33 40  1  0
 37 36  1  6
 38 39  1  1
 39 40  1  0
 39 41  1  6
 41 42  2  0
 41 43  1  0
 44 43  1  6
M  END
$$$$
