
     RDKit          3D

 44 48  0  0  0  0  0  0  0  0999 V2000
   22.3480  -80.8460   22.6118 C   0  0  0  0  0  0  0  0  0  0  0  0
   22.6205  -85.8096   19.6810 C   0  0  0  0  0  0  0  0  0  0  0  0
   22.5938  -84.2817   19.8355 C   0  0  1  0  0  0  0  0  0  0  0  0
   21.9328  -83.2586   21.9252 C   0  0  0  0  0  0  0  0  0  0  0  0
   23.7508  -86.3079   18.6975 C   0  0  0  0  0  0  0  0  0  0  0  0
   25.1906  -85.7662   18.9646 C   0  0  0  0  0  0  0  0  0  0  0  0
   22.5715  -83.6474   18.4759 C   0  0  0  0  0  0  0  0  0  0  0  0
   22.1340  -83.2345   16.4268 C   0  0  0  0  0  0  0  0  0  0  0  0
   28.5408  -80.6372   13.1704 C   0  0  0  0  0  0  0  0  0  0  0  0
   24.3939  -82.0674   15.8391 C   0  0  0  0  0  0  0  0  0  0  0  0
   21.2024  -79.6808   27.5003 Cl  0  0  0  0  0  0  0  0  0  0  0  0
   21.3895  -77.5160   24.1558 C   0  0  0  0  0  0  0  0  0  0  0  0
   21.2524  -77.8860   25.4869 C   0  0  0  0  0  0  0  0  0  0  0  0
   21.4389  -79.2074   25.8437 C   0  0  0  0  0  0  0  0  0  0  0  0
   21.7607  -80.1713   24.9080 C   0  0  0  0  0  0  0  0  0  0  0  0
   21.8907  -79.8136   23.5575 C   0  0  0  0  0  0  0  0  0  0  0  0
   21.6947  -78.4716   23.1894 C   0  0  0  0  0  0  0  0  0  0  0  0
   21.8120  -78.0669   21.8241 N   0  0  0  0  0  0  0  0  0  0  0  0
   21.9725  -78.7644   20.6965 C   0  0  0  0  0  0  0  0  0  0  0  0
   22.1872  -77.9494   19.7027 N   0  0  0  0  0  0  0  0  0  0  0  0
   22.1497  -76.7029   20.2359 N   0  0  0  0  0  0  0  0  0  0  0  0
   21.9181  -76.7549   21.5115 N   0  0  0  0  0  0  0  0  0  0  0  0
   21.5821  -81.8362   22.1447 C   0  0  0  0  0  0  0  0  0  0  0  0
   22.5903  -83.9081   22.7492 O   0  0  0  0  0  0  0  0  0  0  0  0
   21.5561  -83.7927   20.7440 N   0  0  0  0  0  0  0  0  0  0  0  0
   21.6425  -83.8383   17.5564 N   0  0  0  0  0  0  0  0  0  0  0  0
   23.3642  -82.6717   16.6848 C   0  0  0  0  0  0  0  0  0  0  0  0
   23.6032  -82.9262   18.0066 N   0  0  0  0  0  0  0  0  0  0  0  0
   24.0432  -81.0662   14.9288 C   0  0  0  0  0  0  0  0  0  0  0  0
   25.0113  -80.3940   14.2070 C   0  0  0  0  0  0  0  0  0  0  0  0
   26.3607  -80.6982   14.3907 C   0  0  0  0  0  0  0  0  0  0  0  0
   26.7158  -81.7157   15.2800 C   0  0  0  0  0  0  0  0  0  0  0  0
   25.7495  -82.4159   15.9976 C   0  0  0  0  0  0  0  0  0  0  0  0
   27.4124  -80.0598   13.6793 N   0  0  0  0  0  0  0  0  0  0  0  0
   29.6535  -80.1506   13.1521 O   0  0  0  0  0  0  0  0  0  0  0  0
   28.2408  -81.8473   12.6572 O   0  0  0  0  0  0  0  0  0  0  0  0
   27.6012  -81.8387   11.3534 C   0  0  0  0  0  0  0  0  0  0  0  0
   26.1602  -85.8057   17.7708 C   0  0  0  0  0  0  0  0  0  0  0  0
   25.8315  -84.8962   16.5743 C   0  0  1  0  0  0  0  0  0  0  0  0
   26.0781  -83.4899   16.8596 N   0  0  0  0  0  0  0  0  0  0  0  0
   26.6101  -85.2660   15.3213 C   0  0  0  0  0  0  0  0  0  0  0  0
   27.3979  -84.5429   14.7787 O   0  0  0  0  0  0  0  0  0  0  0  0
   26.2583  -86.4649   14.8695 O   0  0  0  0  0  0  0  0  0  0  0  0
   24.8359  -86.7430   14.7507 C   0  0  0  0  0  0  0  0  0  0  0  0
  1 16  1  0
  1 23  2  0
  2  3  1  6
  5  2  1  6
  3  7  1  0
  3 25  1  1
  4 23  1  0
  4 24  2  0
  4 25  1  0
  6  5  1  6
  6 38  1  0
  7 26  2  0
  7 28  1  0
  8 26  1  0
  8 27  2  0
  9 34  1  0
  9 35  2  0
  9 36  1  0
 10 27  1  0
 10 29  1  0
 10 33  2  0
 11 14  1  0
 12 13  2  0
 12 17  1  0
 13 14  1  0
 14 15  2  0
 15 16  1  0
 16 17  2  0
 17 18  1  0
 18 19  1  0
 18 22  1  0
 19 20  2  0
 20 21  1  0
 21 22  2  0
 27 28  1  0
 29 30  2  0
 30 31  1  0
 31 32  2  0
 31 34  1  0
 32 33  1  0
 33 40  1  0
 37 36  1  6
 38 39  1  1
 39 40  1  0
 39 41  1  6
 41 42  2  0
 41 43  1  0
 44 43  1  6
M  END
$$$$
