
     RDKit          3D

 44 48  0  0  0  0  0  0  0  0999 V2000
   75.9489    2.5194   72.5191 C   0  0  0  0  0  0  0  0  0  0  0  0
   73.4569    1.3479   72.7721 C   0  0  0  0  0  0  0  0  0  0  0  0
   73.5119    0.2762   71.6732 C   0  0  1  0  0  0  0  0  0  0  0  0
   75.8786    0.0131   72.0965 C   0  0  0  0  0  0  0  0  0  0  0  0
   71.9860    1.6554   73.2572 C   0  0  0  0  0  0  0  0  0  0  0  0
   71.1169    0.4225   73.6603 C   0  0  0  0  0  0  0  0  0  0  0  0
   72.5500    0.6389   70.5801 C   0  0  0  0  0  0  0  0  0  0  0  0
   71.4150    1.7445   69.1484 C   0  0  0  0  0  0  0  0  0  0  0  0
   65.0563   -1.7450   66.8454 C   0  0  0  0  0  0  0  0  0  0  0  0
   69.3337    0.1695   69.0950 C   0  0  0  0  0  0  0  0  0  0  0  0
   73.1970    4.6056   68.6926 Cl  0  0  0  0  0  0  0  0  0  0  0  0
   72.1906    2.8692   72.1393 C   0  0  0  0  0  0  0  0  0  0  0  0
   72.1192    3.4757   70.8924 C   0  0  0  0  0  0  0  0  0  0  0  0
   73.2874    3.7868   70.2242 C   0  0  0  0  0  0  0  0  0  0  0  0
   74.5272    3.5075   70.7656 C   0  0  0  0  0  0  0  0  0  0  0  0
   74.6145    2.9056   72.0300 C   0  0  0  0  0  0  0  0  0  0  0  0
   73.4282    2.5941   72.7162 C   0  0  0  0  0  0  0  0  0  0  0  0
   73.4733    1.9862   74.0084 N   0  0  0  0  0  0  0  0  0  0  0  0
   74.4718    1.8085   74.8775 C   0  0  0  0  0  0  0  0  0  0  0  0
   74.0677    1.0583   75.8634 N   0  0  0  0  0  0  0  0  0  0  0  0
   72.7698    0.7694   75.5963 N   0  0  0  0  0  0  0  0  0  0  0  0
   72.3936    1.3257   74.4861 N   0  0  0  0  0  0  0  0  0  0  0  0
   76.5214    1.3327   72.2969 C   0  0  0  0  0  0  0  0  0  0  0  0
   76.2862   -1.0093   72.6637 O   0  0  0  0  0  0  0  0  0  0  0  0
   74.8646   -0.0299   71.2065 N   0  0  0  0  0  0  0  0  0  0  0  0
   72.5825    1.7515   69.8689 N   0  0  0  0  0  0  0  0  0  0  0  0
   70.6884    0.6091   69.4305 C   0  0  0  0  0  0  0  0  0  0  0  0
   71.4509   -0.0900   70.3242 N   0  0  0  0  0  0  0  0  0  0  0  0
   68.9028    0.2057   67.7657 C   0  0  0  0  0  0  0  0  0  0  0  0
   67.6755   -0.3168   67.4043 C   0  0  0  0  0  0  0  0  0  0  0  0
   66.8526   -0.9043   68.3659 C   0  0  0  0  0  0  0  0  0  0  0  0
   67.2665   -0.9201   69.7004 C   0  0  0  0  0  0  0  0  0  0  0  0
   68.4909   -0.3778   70.0820 C   0  0  0  0  0  0  0  0  0  0  0  0
   65.5743   -1.4528   68.0750 N   0  0  0  0  0  0  0  0  0  0  0  0
   65.6803   -1.8611   65.8099 O   0  0  0  0  0  0  0  0  0  0  0  0
   63.7168   -1.8706   66.9342 O   0  0  0  0  0  0  0  0  0  0  0  0
   62.9776   -1.6266   65.7082 C   0  0  0  0  0  0  0  0  0  0  0  0
   69.5928    0.6302   73.6279 C   0  0  0  0  0  0  0  0  0  0  0  0
   68.9510    0.8761   72.2516 C   0  0  1  0  0  0  0  0  0  0  0  0
   68.9074   -0.3280   71.4343 N   0  0  0  0  0  0  0  0  0  0  0  0
   67.5379    1.4294   72.3505 C   0  0  0  0  0  0  0  0  0  0  0  0
   66.7447    1.1077   73.1903 O   0  0  0  0  0  0  0  0  0  0  0  0
   67.2744    2.2644   71.3512 O   0  0  0  0  0  0  0  0  0  0  0  0
   65.9210    2.7880   71.2573 C   0  0  0  0  0  0  0  0  0  0  0  0
  1 16  1  0
  1 23  2  0
  2  3  1  6
  5  2  1  6
  3  7  1  0
  3 25  1  6
  4 23  1  0
  4 24  2  0
  4 25  1  0
  6  5  1  6
  6 38  1  0
  7 26  2  0
  7 28  1  0
  8 26  1  0
  8 27  2  0
  9 34  1  0
  9 35  2  0
  9 36  1  0
 10 27  1  0
 10 29  1  0
 10 33  2  0
 11 14  1  0
 12 13  2  0
 12 17  1  0
 13 14  1  0
 14 15  2  0
 15 16  1  0
 16 17  2  0
 17 18  1  0
 18 19  1  0
 18 22  1  0
 19 20  2  0
 20 21  1  0
 21 22  2  0
 27 28  1  0
 29 30  2  0
 30 31  1  0
 31 32  2  0
 31 34  1  0
 32 33  1  0
 33 40  1  0
 37 36  1  6
 38 39  1  1
 39 40  1  0
 39 41  1  1
 41 42  2  0
 41 43  1  0
 44 43  1  6
M  END
$$$$
