
     RDKit          3D

 44 48  0  0  0  0  0  0  0  0999 V2000
   98.4122   39.0956    3.9840 C   0  0  0  0  0  0  0  0  0  0  0  0
  101.6505   36.5129    1.5484 C   0  0  0  0  0  0  0  0  0  0  0  0
  100.2116   36.8136    1.1030 C   0  0  1  0  0  0  0  0  0  0  0  0
   99.5248   36.8797    3.4211 C   0  0  0  0  0  0  0  0  0  0  0  0
  102.7126   36.7680    0.4080 C   0  0  0  0  0  0  0  0  0  0  0  0
  102.6457   38.1561   -0.3037 C   0  0  0  0  0  0  0  0  0  0  0  0
   99.9344   36.1010   -0.1881 C   0  0  0  0  0  0  0  0  0  0  0  0
   99.8752   34.6218   -1.7273 C   0  0  0  0  0  0  0  0  0  0  0  0
   99.1726   39.0190   -8.0668 C   0  0  0  0  0  0  0  0  0  0  0  0
   99.7102   36.2628   -3.7510 C   0  0  0  0  0  0  0  0  0  0  0  0
  102.1531   39.3411    0.4468 Cl  0  0  0  0  0  0  0  0  0  0  0  0
   99.8192   42.0970    2.1393 C   0  0  0  0  0  0  0  0  0  0  0  0
  100.7565   41.4753    1.3253 C   0  0  0  0  0  0  0  0  0  0  0  0
  100.9330   40.1086    1.4197 C   0  0  0  0  0  0  0  0  0  0  0  0
  100.1978   39.3432    2.3039 C   0  0  0  0  0  0  0  0  0  0  0  0
   99.2555   39.9599    3.1409 C   0  0  0  0  0  0  0  0  0  0  0  0
   99.0781   41.3512    3.0529 C   0  0  0  0  0  0  0  0  0  0  0  0
   98.1331   42.0187    3.8914 N   0  0  0  0  0  0  0  0  0  0  0  0
   96.7977   42.0154    3.9108 C   0  0  0  0  0  0  0  0  0  0  0  0
   96.3686   42.9057    4.7602 N   0  0  0  0  0  0  0  0  0  0  0  0
   97.4808   43.4732    5.2898 N   0  0  0  0  0  0  0  0  0  0  0  0
   98.5524   42.9462    4.7826 N   0  0  0  0  0  0  0  0  0  0  0  0
   98.5947   37.7812    4.1400 C   0  0  0  0  0  0  0  0  0  0  0  0
  100.5703   36.4655    3.9392 O   0  0  0  0  0  0  0  0  0  0  0  0
   99.2066   36.5874    2.1422 N   0  0  0  0  0  0  0  0  0  0  0  0
  100.0027   34.7947   -0.3723 N   0  0  0  0  0  0  0  0  0  0  0  0
   99.7202   35.8404   -2.3501 C   0  0  0  0  0  0  0  0  0  0  0  0
   99.7328   36.7617   -1.3402 N   0  0  0  0  0  0  0  0  0  0  0  0
   98.8845   35.6049   -4.6672 C   0  0  0  0  0  0  0  0  0  0  0  0
   98.7635   36.0606   -5.9663 C   0  0  0  0  0  0  0  0  0  0  0  0
   99.4571   37.1993   -6.3776 C   0  0  0  0  0  0  0  0  0  0  0  0
  100.3040   37.8460   -5.4738 C   0  0  0  0  0  0  0  0  0  0  0  0
  100.4522   37.3850   -4.1682 C   0  0  0  0  0  0  0  0  0  0  0  0
   99.3931   37.7227   -7.6973 N   0  0  0  0  0  0  0  0  0  0  0  0
   98.5040   39.8356   -7.4657 O   0  0  0  0  0  0  0  0  0  0  0  0
   99.7982   39.2721   -9.2340 O   0  0  0  0  0  0  0  0  0  0  0  0
   99.4844   40.5470   -9.8546 C   0  0  0  0  0  0  0  0  0  0  0  0
  103.2823   38.2300   -1.7024 C   0  0  0  0  0  0  0  0  0  0  0  0
  102.6128   37.4094   -2.8182 C   0  0  1  0  0  0  0  0  0  0  0  0
  101.3478   37.9861   -3.2511 N   0  0  0  0  0  0  0  0  0  0  0  0
  103.4994   37.2462   -4.0430 C   0  0  0  0  0  0  0  0  0  0  0  0
  104.3314   38.0396   -4.3841 O   0  0  0  0  0  0  0  0  0  0  0  0
  103.1901   36.1461   -4.7208 O   0  0  0  0  0  0  0  0  0  0  0  0
  102.5492   36.3168   -6.0148 C   0  0  0  0  0  0  0  0  0  0  0  0
  1 16  1  0
  1 23  2  0
  2  3  1  6
  5  2  1  6
  3  7  1  0
  3 25  1  1
  4 23  1  0
  4 24  2  0
  4 25  1  0
  6  5  1  6
  6 38  1  0
  7 26  2  0
  7 28  1  0
  8 26  1  0
  8 27  2  0
  9 34  1  0
  9 35  2  0
  9 36  1  0
 10 27  1  0
 10 29  1  0
 10 33  2  0
 11 14  1  0
 12 13  2  0
 12 17  1  0
 13 14  1  0
 14 15  2  0
 15 16  1  0
 16 17  2  0
 17 18  1  0
 18 19  1  0
 18 22  1  0
 19 20  2  0
 20 21  1  0
 21 22  2  0
 27 28  1  0
 29 30  2  0
 30 31  1  0
 31 32  2  0
 31 34  1  0
 32 33  1  0
 33 40  1  0
 37 36  1  6
 38 39  1  1
 39 40  1  0
 39 41  1  6
 41 42  2  0
 41 43  1  0
 44 43  1  6
M  END
$$$$
