
     RDKit          3D

 44 48  0  0  0  0  0  0  0  0999 V2000
    4.3606 -101.8188  -50.4598 C   0  0  0  0  0  0  0  0  0  0  0  0
    5.5923 -101.3467  -46.1978 C   0  0  0  0  0  0  0  0  0  0  0  0
    6.6737 -101.3608  -47.2885 C   0  0  1  0  0  0  0  0  0  0  0  0
    5.4161 -103.0385  -48.4942 C   0  0  0  0  0  0  0  0  0  0  0  0
    5.6701 -100.0698  -45.2722 C   0  0  0  0  0  0  0  0  0  0  0  0
    5.7232  -98.6889  -45.9989 C   0  0  0  0  0  0  0  0  0  0  0  0
    8.0141 -101.1186  -46.6591 C   0  0  0  0  0  0  0  0  0  0  0  0
    9.6719 -101.1649  -45.3136 C   0  0  0  0  0  0  0  0  0  0  0  0
   14.3676  -95.2378  -45.3996 C   0  0  0  0  0  0  0  0  0  0  0  0
   10.6283  -98.8058  -45.8924 C   0  0  0  0  0  0  0  0  0  0  0  0
    7.7004  -97.9091  -50.1027 Cl  0  0  0  0  0  0  0  0  0  0  0  0
    5.6791  -99.4953  -53.1532 C   0  0  0  0  0  0  0  0  0  0  0  0
    6.5491  -98.7125  -52.4063 C   0  0  0  0  0  0  0  0  0  0  0  0
    6.6598  -98.9335  -51.0473 C   0  0  0  0  0  0  0  0  0  0  0  0
    5.9266  -99.9167  -50.4118 C   0  0  0  0  0  0  0  0  0  0  0  0
    5.0347 -100.7074  -51.1522 C   0  0  0  0  0  0  0  0  0  0  0  0
    4.9140 -100.4809  -52.5339 C   0  0  0  0  0  0  0  0  0  0  0  0
    4.0129 -101.2599  -53.3230 N   0  0  0  0  0  0  0  0  0  0  0  0
    3.5371 -102.4989  -53.1735 C   0  0  0  0  0  0  0  0  0  0  0  0
    2.8623 -102.8412  -54.2344 N   0  0  0  0  0  0  0  0  0  0  0  0
    2.9174 -101.7707  -55.0653 N   0  0  0  0  0  0  0  0  0  0  0  0
    3.6010 -100.8069  -54.5293 N   0  0  0  0  0  0  0  0  0  0  0  0
    4.9917 -102.8560  -49.9018 C   0  0  0  0  0  0  0  0  0  0  0  0
    4.6814 -103.5679  -47.6497 O   0  0  0  0  0  0  0  0  0  0  0  0
    6.6231 -102.5333  -48.1626 N   0  0  0  0  0  0  0  0  0  0  0  0
    8.5688 -101.8695  -45.7244 N   0  0  0  0  0  0  0  0  0  0  0  0
    9.7755  -99.9878  -46.0210 C   0  0  0  0  0  0  0  0  0  0  0  0
    8.7211 -100.0001  -46.8912 N   0  0  0  0  0  0  0  0  0  0  0  0
   12.0146  -98.9586  -45.7981 C   0  0  0  0  0  0  0  0  0  0  0  0
   12.8504  -97.8579  -45.7994 C   0  0  0  0  0  0  0  0  0  0  0  0
   12.3179  -96.5730  -45.9109 C   0  0  0  0  0  0  0  0  0  0  0  0
   10.9315  -96.4125  -45.9794 C   0  0  0  0  0  0  0  0  0  0  0  0
   10.0766  -97.5114  -45.9572 C   0  0  0  0  0  0  0  0  0  0  0  0
   13.1097  -95.3929  -45.9087 N   0  0  0  0  0  0  0  0  0  0  0  0
   14.6558  -95.0602  -44.2331 O   0  0  0  0  0  0  0  0  0  0  0  0
   15.2721  -95.2890  -46.3981 O   0  0  0  0  0  0  0  0  0  0  0  0
   15.7423  -94.0060  -46.8899 C   0  0  0  0  0  0  0  0  0  0  0  0
    6.3069  -97.5196  -45.1871 C   0  0  0  0  0  0  0  0  0  0  0  0
    7.7986  -97.6010  -44.8197 C   0  0  1  0  0  0  0  0  0  0  0  0
    8.6675  -97.3735  -45.9656 N   0  0  0  0  0  0  0  0  0  0  0  0
    8.1914  -96.6175  -43.7283 C   0  0  0  0  0  0  0  0  0  0  0  0
    8.6266  -96.9364  -42.6574 O   0  0  0  0  0  0  0  0  0  0  0  0
    7.9304  -95.3655  -44.0888 O   0  0  0  0  0  0  0  0  0  0  0  0
    8.0103  -94.3431  -43.0578 C   0  0  0  0  0  0  0  0  0  0  0  0
  1 16  1  0
  1 23  2  0
  2  3  1  6
  5  2  1  6
  3  7  1  0
  3 25  1  1
  4 23  1  0
  4 24  2  0
  4 25  1  0
  6  5  1  6
  6 38  1  0
  7 26  2  0
  7 28  1  0
  8 26  1  0
  8 27  2  0
  9 34  1  0
  9 35  2  0
  9 36  1  0
 10 27  1  0
 10 29  1  0
 10 33  2  0
 11 14  1  0
 12 13  2  0
 12 17  1  0
 13 14  1  0
 14 15  2  0
 15 16  1  0
 16 17  2  0
 17 18  1  0
 18 19  1  0
 18 22  1  0
 19 20  2  0
 20 21  1  0
 21 22  2  0
 27 28  1  0
 29 30  2  0
 30 31  1  0
 31 32  2  0
 31 34  1  0
 32 33  1  0
 33 40  1  0
 37 36  1  6
 38 39  1  1
 39 40  1  0
 39 41  1  1
 41 42  2  0
 41 43  1  0
 44 43  1  6
M  END
$$$$
