
     RDKit          3D

 44 48  0  0  0  0  0  0  0  0999 V2000
  -18.6864  -87.7224 -109.7413 C   0  0  0  0  0  0  0  0  0  0  0  0
  -22.2035  -89.0666 -107.3201 C   0  0  0  0  0  0  0  0  0  0  0  0
  -21.9405  -90.3584 -108.1083 C   0  0  1  0  0  0  0  0  0  0  0  0
  -19.6637  -89.5609 -108.2819 C   0  0  0  0  0  0  0  0  0  0  0  0
  -23.7322  -88.8491 -106.9897 C   0  0  0  0  0  0  0  0  0  0  0  0
  -24.4752  -90.0499 -106.3234 C   0  0  0  0  0  0  0  0  0  0  0  0
  -22.8559  -90.4080 -109.2962 C   0  0  0  0  0  0  0  0  0  0  0  0
  -24.0067  -89.8509 -111.0067 C   0  0  0  0  0  0  0  0  0  0  0  0
  -30.4223  -94.0327 -110.6576 C   0  0  0  0  0  0  0  0  0  0  0  0
  -25.8754  -91.6548 -110.7447 C   0  0  0  0  0  0  0  0  0  0  0  0
  -17.7764  -83.3162 -107.2265 Cl  0  0  0  0  0  0  0  0  0  0  0  0
  -21.0791  -84.9489 -108.7541 C   0  0  0  0  0  0  0  0  0  0  0  0
  -20.1996  -84.0617 -108.1482 C   0  0  0  0  0  0  0  0  0  0  0  0
  -18.8642  -84.3991 -108.0439 C   0  0  0  0  0  0  0  0  0  0  0  0
  -18.3806  -85.5984 -108.5297 C   0  0  0  0  0  0  0  0  0  0  0  0
  -19.2602  -86.5096 -109.1337 C   0  0  0  0  0  0  0  0  0  0  0  0
  -20.6208  -86.1731 -109.2353 C   0  0  0  0  0  0  0  0  0  0  0  0
  -21.5505  -87.0753 -109.8379 N   0  0  0  0  0  0  0  0  0  0  0  0
  -21.7207  -87.4696 -111.1026 C   0  0  0  0  0  0  0  0  0  0  0  0
  -22.8037  -88.1881 -111.1968 N   0  0  0  0  0  0  0  0  0  0  0  0
  -23.3159  -88.2455 -109.9422 N   0  0  0  0  0  0  0  0  0  0  0  0
  -22.5701  -87.5862 -109.1101 N   0  0  0  0  0  0  0  0  0  0  0  0
  -19.1416  -88.9610 -109.5318 C   0  0  0  0  0  0  0  0  0  0  0  0
  -19.2812  -89.1887 -107.1647 O   0  0  0  0  0  0  0  0  0  0  0  0
  -20.5303  -90.5857 -108.4262 N   0  0  0  0  0  0  0  0  0  0  0  0
  -22.9044  -89.5106 -110.2642 N   0  0  0  0  0  0  0  0  0  0  0  0
  -24.6113  -90.9688 -110.4762 C   0  0  0  0  0  0  0  0  0  0  0  0
  -23.8384  -91.3179 -109.4039 N   0  0  0  0  0  0  0  0  0  0  0  0
  -26.2088  -92.0049 -112.0563 C   0  0  0  0  0  0  0  0  0  0  0  0
  -27.3351  -92.7599 -112.3237 C   0  0  0  0  0  0  0  0  0  0  0  0
  -28.1503  -93.1975 -111.2792 C   0  0  0  0  0  0  0  0  0  0  0  0
  -27.8366  -92.8289 -109.9685 C   0  0  0  0  0  0  0  0  0  0  0  0
  -26.7170  -92.0504 -109.6867 C   0  0  0  0  0  0  0  0  0  0  0  0
  -29.3292  -93.9669 -111.4739 N   0  0  0  0  0  0  0  0  0  0  0  0
  -30.7050  -94.9424 -109.9042 O   0  0  0  0  0  0  0  0  0  0  0  0
  -31.1788  -92.9286 -110.8204 O   0  0  0  0  0  0  0  0  0  0  0  0
  -30.5516  -91.6733 -110.4465 C   0  0  0  0  0  0  0  0  0  0  0  0
  -26.0066  -90.0627 -106.4699 C   0  0  0  0  0  0  0  0  0  0  0  0
  -26.5705  -90.2513 -107.8888 C   0  0  1  0  0  0  0  0  0  0  0  0
  -26.4099  -91.6141 -108.3753 N   0  0  0  0  0  0  0  0  0  0  0  0
  -28.0429  -89.8851 -107.9914 C   0  0  0  0  0  0  0  0  0  0  0  0
  -28.7406  -90.1518 -108.9295 O   0  0  0  0  0  0  0  0  0  0  0  0
  -28.4397  -89.1770 -106.9394 O   0  0  0  0  0  0  0  0  0  0  0  0
  -27.4276  -88.4118 -106.2291 C   0  0  0  0  0  0  0  0  0  0  0  0
  1 16  1  0
  1 23  2  0
  2  3  1  6
  5  2  1  6
  3  7  1  0
  3 25  1  6
  4 23  1  0
  4 24  2  0
  4 25  1  0
  6  5  1  6
  6 38  1  0
  7 26  2  0
  7 28  1  0
  8 26  1  0
  8 27  2  0
  9 34  1  0
  9 35  2  0
  9 36  1  0
 10 27  1  0
 10 29  1  0
 10 33  2  0
 11 14  1  0
 12 13  2  0
 12 17  1  0
 13 14  1  0
 14 15  2  0
 15 16  1  0
 16 17  2  0
 17 18  1  0
 18 19  1  0
 18 22  1  0
 19 20  2  0
 20 21  1  0
 21 22  2  0
 27 28  1  0
 29 30  2  0
 30 31  1  0
 31 32  2  0
 31 34  1  0
 32 33  1  0
 33 40  1  0
 37 36  1  6
 38 39  1  1
 39 40  1  0
 39 41  1  1
 41 42  2  0
 41 43  1  0
 44 43  1  6
M  END
$$$$
