
     RDKit          3D

 44 48  0  0  0  0  0  0  0  0999 V2000
17846.4883 5093.6099 5715.6753 C   0  0  0  0  0  0  0  0  0  0  0  0
17842.7617 5098.4556 5716.1396 C   0  0  0  0  0  0  0  0  0  0  0  0
17844.1426 5097.7817 5716.2090 C   0  0  1  0  0  0  0  0  0  0  0  0
17844.8086 5095.4565 5716.1719 C   0  0  0  0  0  0  0  0  0  0  0  0
17842.7266 5099.8545 5716.8696 C   0  0  0  0  0  0  0  0  0  0  0  0
17843.8496 5100.8711 5716.4785 C   0  0  0  0  0  0  0  0  0  0  0  0
17844.6133 5097.7612 5717.6333 C   0  0  0  0  0  0  0  0  0  0  0  0
17844.6621 5097.5894 5719.7617 C   0  0  0  0  0  0  0  0  0  0  0  0
17849.4355 5102.8257 5722.5776 C   0  0  0  0  0  0  0  0  0  0  0  0
17846.6309 5099.2466 5720.1787 C   0  0  0  0  0  0  0  0  0  0  0  0
17848.8574 5089.0356 5715.8008 Cl  0  0  0  0  0  0  0  0  0  0  0  0
17845.1270 5090.1489 5714.9243 C   0  0  0  0  0  0  0  0  0  0  0  0
17846.2578 5089.3784 5715.1772 C   0  0  0  0  0  0  0  0  0  0  0  0
17847.4316 5089.9966 5715.5498 C   0  0  0  0  0  0  0  0  0  0  0  0
17847.5176 5091.3706 5715.6763 C   0  0  0  0  0  0  0  0  0  0  0  0
17846.3887 5092.1650 5715.4146 C   0  0  0  0  0  0  0  0  0  0  0  0
17845.1914 5091.5376 5715.0303 C   0  0  0  0  0  0  0  0  0  0  0  0
17844.0254 5092.3096 5714.7461 N   0  0  0  0  0  0  0  0  0  0  0  0
17843.2227 5092.3574 5713.6802 C   0  0  0  0  0  0  0  0  0  0  0  0
17842.3652 5093.3320 5713.8145 N   0  0  0  0  0  0  0  0  0  0  0  0
17842.6523 5093.9048 5715.0112 N   0  0  0  0  0  0  0  0  0  0  0  0
17843.6367 5093.2983 5715.5874 N   0  0  0  0  0  0  0  0  0  0  0  0
17845.5645 5094.5093 5715.3193 C   0  0  0  0  0  0  0  0  0  0  0  0
17844.6914 5095.2856 5717.3921 O   0  0  0  0  0  0  0  0  0  0  0  0
17844.2070 5096.4819 5715.5361 N   0  0  0  0  0  0  0  0  0  0  0  0
17843.9824 5097.1816 5718.6401 N   0  0  0  0  0  0  0  0  0  0  0  0
17845.7129 5098.4111 5719.4126 C   0  0  0  0  0  0  0  0  0  0  0  0
17845.6719 5098.4785 5718.0474 N   0  0  0  0  0  0  0  0  0  0  0  0
17847.3281 5098.6992 5721.2632 C   0  0  0  0  0  0  0  0  0  0  0  0
17848.2930 5099.4282 5721.9263 C   0  0  0  0  0  0  0  0  0  0  0  0
17848.6094 5100.7236 5721.5093 C   0  0  0  0  0  0  0  0  0  0  0  0
17847.8945 5101.2852 5720.4434 C   0  0  0  0  0  0  0  0  0  0  0  0
17846.9082 5100.5698 5719.7798 C   0  0  0  0  0  0  0  0  0  0  0  0
17849.5840 5101.5386 5722.1460 N   0  0  0  0  0  0  0  0  0  0  0  0
17850.3008 5103.5278 5723.0635 O   0  0  0  0  0  0  0  0  0  0  0  0
17848.1504 5103.2192 5722.4053 O   0  0  0  0  0  0  0  0  0  0  0  0
17847.9707 5104.6011 5721.9946 C   0  0  0  0  0  0  0  0  0  0  0  0
17844.1387 5101.9785 5717.5034 C   0  0  0  0  0  0  0  0  0  0  0  0
17844.7422 5101.5430 5718.8521 C   0  0  1  0  0  0  0  0  0  0  0  0
17846.1387 5101.1367 5718.7358 N   0  0  0  0  0  0  0  0  0  0  0  0
17844.6543 5102.6265 5719.9155 C   0  0  0  0  0  0  0  0  0  0  0  0
17845.6016 5103.2070 5720.3667 O   0  0  0  0  0  0  0  0  0  0  0  0
17843.4023 5102.8003 5720.3262 O   0  0  0  0  0  0  0  0  0  0  0  0
17842.3398 5102.4238 5719.4087 C   0  0  0  0  0  0  0  0  0  0  0  0
  1 16  1  0
  1 23  2  0
  2  3  1  6
  5  2  1  6
  3  7  1  0
  3 25  1  1
  4 23  1  0
  4 24  2  0
  4 25  1  0
  6  5  1  6
  6 38  1  0
  7 26  2  0
  7 28  1  0
  8 26  1  0
  8 27  2  0
  9 34  1  0
  9 35  2  0
  9 36  1  0
 10 27  1  0
 10 29  1  0
 10 33  2  0
 11 14  1  0
 12 13  2  0
 12 17  1  0
 13 14  1  0
 14 15  2  0
 15 16  1  0
 16 17  2  0
 17 18  1  0
 18 19  1  0
 18 22  1  0
 19 20  2  0
 20 21  1  0
 21 22  2  0
 27 28  1  0
 29 30  2  0
 30 31  1  0
 31 32  2  0
 31 34  1  0
 32 33  1  0
 33 40  1  0
 37 36  1  6
 38 39  1  1
 39 40  1  0
 39 41  1  1
 41 42  2  0
 41 43  1  0
 44 43  1  6
M  END
$$$$
