
     RDKit          3D

 19 20  0  0  0  0  0  0  0  0999 V2000
   14.5458   78.2225   60.2789 N   0  0  0  0  0  0  0  0  0  0  0  0
   13.5020   77.7827   60.9892 C   0  0  0  0  0  0  0  0  0  0  0  0
   14.8672   79.5162   60.3956 C   0  0  0  0  0  0  0  0  0  0  0  0
   14.1989   80.4004   61.2215 C   0  0  0  0  0  0  0  0  0  0  0  0
   13.1284   79.9495   61.9834 C   0  0  0  0  0  0  0  0  0  0  0  0
   12.4614   80.8586   62.9836 C   0  0  0  0  0  0  0  0  0  0  0  0
   10.9110   81.4190   64.3989 C   0  0  0  0  0  0  0  0  0  0  0  0
    8.5197   82.2414   65.4788 C   0  0  0  0  0  0  0  0  0  0  0  0
    6.9935   82.8027   66.0985 Cl  0  0  0  0  0  0  0  0  0  0  0  0
    9.6858   82.8594   65.8864 C   0  0  0  0  0  0  0  0  0  0  0  0
   10.8868   82.4576   65.3159 C   0  0  0  0  0  0  0  0  0  0  0  0
    8.5286   81.2060   64.5665 C   0  0  0  0  0  0  0  0  0  0  0  0
    9.7378   80.7634   64.0412 C   0  0  0  0  0  0  0  0  0  0  0  0
    9.7641   79.5047   63.1823 C   0  0  1  0  0  0  0  0  0  0  0  0
    9.6359   79.7989   61.6854 C   0  0  0  0  0  0  0  0  0  0  0  0
   11.0272   78.7224   63.5566 C   0  0  0  0  0  0  0  0  0  0  0  0
   11.4448   78.6884   64.7135 O   0  0  0  0  0  0  0  0  0  0  0  0
   11.6433   78.0991   62.5267 N   0  0  0  0  0  0  0  0  0  0  0  0
   12.7607   78.6016   61.8391 C   0  0  0  0  0  0  0  0  0  0  0  0
  1  2  2  0
  1  3  1  0
  2 19  1  0
  3  4  2  0
  4  5  1  0
  6  5  1  6
  5 19  2  0
  7 11  2  0
  7 13  1  0
  8  9  1  0
  8 10  2  0
  8 12  1  0
 10 11  1  0
 12 13  2  0
 13 14  1  0
 15 14  1  6
 14 16  1  6
 16 17  2  0
 16 18  1  0
 18 19  1  0
M  END
$$$$
