
     RDKit          3D

 19 20  0  0  0  0  0  0  0  0999 V2000
  -36.7521  -28.4560   -9.0619 N   0  0  0  0  0  0  0  0  0  0  0  0
  -36.8164  -29.5549   -8.3032 C   0  0  0  0  0  0  0  0  0  0  0  0
  -35.5426  -28.0739   -9.4887 C   0  0  0  0  0  0  0  0  0  0  0  0
  -34.3780  -28.7637   -9.2088 C   0  0  0  0  0  0  0  0  0  0  0  0
  -34.4353  -29.9208   -8.4423 C   0  0  0  0  0  0  0  0  0  0  0  0
  -33.2020  -30.7599   -8.2260 C   0  0  0  0  0  0  0  0  0  0  0  0
  -32.2439  -32.0301   -7.5614 C   0  0  0  0  0  0  0  0  0  0  0  0
  -30.8121  -33.6470   -9.2632 C   0  0  0  0  0  0  0  0  0  0  0  0
  -29.9134  -34.7276  -10.2895 Cl  0  0  0  0  0  0  0  0  0  0  0  0
  -30.1322  -32.7522   -8.4601 C   0  0  0  0  0  0  0  0  0  0  0  0
  -30.8602  -31.9584   -7.5831 C   0  0  0  0  0  0  0  0  0  0  0  0
  -32.1896  -33.7294   -9.2521 C   0  0  0  0  0  0  0  0  0  0  0  0
  -32.9214  -32.8915   -8.4176 C   0  0  0  0  0  0  0  0  0  0  0  0
  -34.4398  -32.8523   -8.5421 C   0  0  1  0  0  0  0  0  0  0  0  0
  -35.0234  -34.1290   -9.1530 C   0  0  0  0  0  0  0  0  0  0  0  0
  -35.0031  -32.5109   -7.1588 C   0  0  0  0  0  0  0  0  0  0  0  0
  -34.7388  -33.1927   -6.1693 O   0  0  0  0  0  0  0  0  0  0  0  0
  -35.8137  -31.4291   -7.1195 N   0  0  0  0  0  0  0  0  0  0  0  0
  -35.6957  -30.3088   -7.9591 C   0  0  0  0  0  0  0  0  0  0  0  0
  1  2  2  0
  1  3  1  0
  2 19  1  0
  3  4  2  0
  4  5  1  0
  6  5  1  6
  5 19  2  0
  7 11  2  0
  7 13  1  0
  8  9  1  0
  8 10  2  0
  8 12  1  0
 10 11  1  0
 12 13  2  0
 13 14  1  0
 15 14  1  6
 14 16  1  1
 16 17  2  0
 16 18  1  0
 18 19  1  0
M  END
$$$$
