
     RDKit          3D

 19 20  0  0  0  0  0  0  0  0999 V2000
  -37.8608    3.5658   28.8875 N   0  0  0  0  0  0  0  0  0  0  0  0
  -37.4382    2.9758   27.7647 C   0  0  0  0  0  0  0  0  0  0  0  0
  -38.3378    4.8119   28.7849 C   0  0  0  0  0  0  0  0  0  0  0  0
  -38.4369    5.4985   27.5894 C   0  0  0  0  0  0  0  0  0  0  0  0
  -38.0242    4.8866   26.4125 C   0  0  0  0  0  0  0  0  0  0  0  0
  -38.2353    5.5618   25.0816 C   0  0  0  0  0  0  0  0  0  0  0  0
  -37.4958   -1.2041   23.8452 C   0  0  0  0  0  0  0  0  0  0  0  0
  -35.7083   -2.5224   25.4662 C   0  0  0  0  0  0  0  0  0  0  0  0
  -34.5321   -3.3678   26.4307 Cl  0  0  0  0  0  0  0  0  0  0  0  0
  -36.8309   -3.1939   25.0228 C   0  0  0  0  0  0  0  0  0  0  0  0
  -37.7150   -2.5303   24.1818 C   0  0  0  0  0  0  0  0  0  0  0  0
  -35.4771   -1.2018   25.1389 C   0  0  0  0  0  0  0  0  0  0  0  0
  -36.3939   -0.5196   24.3466 C   0  0  0  0  0  0  0  0  0  0  0  0
  -36.2342    0.9822   24.1421 C   0  0  1  0  0  0  0  0  0  0  0  0
  -36.2784    1.3936   22.6682 C   0  0  0  0  0  0  0  0  0  0  0  0
  -37.2858    1.6765   25.0136 C   0  0  0  0  0  0  0  0  0  0  0  0
  -38.3289    1.1105   25.3385 O   0  0  0  0  0  0  0  0  0  0  0  0
  -36.9865    2.9450   25.3743 N   0  0  0  0  0  0  0  0  0  0  0  0
  -37.4878    3.5926   26.5159 C   0  0  0  0  0  0  0  0  0  0  0  0
  1  2  2  0
  1  3  1  0
  2 19  1  0
  3  4  2  0
  4  5  1  0
  6  5  1  6
  5 19  2  0
  7 11  2  0
  7 13  1  0
  8  9  1  0
  8 10  2  0
  8 12  1  0
 10 11  1  0
 12 13  2  0
 13 14  1  0
 15 14  1  6
 14 16  1  1
 16 17  2  0
 16 18  1  0
 18 19  1  0
M  END
$$$$
