
     RDKit          3D

 19 20  0  0  0  0  0  0  0  0999 V2000
   31.0632  -47.0611   28.1578 N   0  0  0  0  0  0  0  0  0  0  0  0
   31.2567  -47.0504   26.8350 C   0  0  0  0  0  0  0  0  0  0  0  0
   32.1235  -46.8138   28.9359 C   0  0  0  0  0  0  0  0  0  0  0  0
   33.3837  -46.5271   28.4457 C   0  0  0  0  0  0  0  0  0  0  0  0
   33.5913  -46.4886   27.0726 C   0  0  0  0  0  0  0  0  0  0  0  0
   34.9214  -46.0575   26.5095 C   0  0  0  0  0  0  0  0  0  0  0  0
   32.1188  -45.0910   21.3409 C   0  0  0  0  0  0  0  0  0  0  0  0
   32.0611  -47.7618   20.6899 C   0  0  0  0  0  0  0  0  0  0  0  0
   32.0850  -49.4406   20.2318 Cl  0  0  0  0  0  0  0  0  0  0  0  0
   31.1689  -46.9041   20.0766 C   0  0  0  0  0  0  0  0  0  0  0  0
   31.2226  -45.5520   20.3899 C   0  0  0  0  0  0  0  0  0  0  0  0
   32.9591  -47.3168   21.6386 C   0  0  0  0  0  0  0  0  0  0  0  0
   32.9712  -45.9731   21.9963 C   0  0  0  0  0  0  0  0  0  0  0  0
   33.8290  -45.5196   23.1716 C   0  0  1  0  0  0  0  0  0  0  0  0
   33.4023  -44.1617   23.7352 C   0  0  0  0  0  0  0  0  0  0  0  0
   33.8240  -46.6512   24.2044 C   0  0  0  0  0  0  0  0  0  0  0  0
   34.8197  -47.3461   24.4038 O   0  0  0  0  0  0  0  0  0  0  0  0
   32.6515  -46.8314   24.8537 N   0  0  0  0  0  0  0  0  0  0  0  0
   32.4927  -46.7834   26.2488 C   0  0  0  0  0  0  0  0  0  0  0  0
  1  2  2  0
  1  3  1  0
  2 19  1  0
  3  4  2  0
  4  5  1  0
  6  5  1  6
  5 19  2  0
  7 11  2  0
  7 13  1  0
  8  9  1  0
  8 10  2  0
  8 12  1  0
 10 11  1  0
 12 13  2  0
 13 14  1  0
 15 14  1  6
 14 16  1  1
 16 17  2  0
 16 18  1  0
 18 19  1  0
M  END
$$$$
