
     RDKit          3D

 19 20  0  0  0  0  0  0  0  0999 V2000
  -64.1707   83.3854   77.8482 N   0  0  0  0  0  0  0  0  0  0  0  0
  -64.9647   83.2947   76.7764 C   0  0  0  0  0  0  0  0  0  0  0  0
  -63.1669   82.5056   77.9456 C   0  0  0  0  0  0  0  0  0  0  0  0
  -62.8999   81.5392   76.9941 C   0  0  0  0  0  0  0  0  0  0  0  0
  -63.7029   81.4513   75.8639 C   0  0  0  0  0  0  0  0  0  0  0  0
  -63.3615   80.4916   74.7528 C   0  0  0  0  0  0  0  0  0  0  0  0
  -65.1784   79.8478   73.5999 C   0  0  0  0  0  0  0  0  0  0  0  0
  -67.1285   78.7969   71.9709 C   0  0  0  0  0  0  0  0  0  0  0  0
  -68.4156   78.1642   70.9853 Cl  0  0  0  0  0  0  0  0  0  0  0  0
  -66.5296   77.9804   72.9102 C   0  0  0  0  0  0  0  0  0  0  0  0
  -65.5652   78.5254   73.7481 C   0  0  0  0  0  0  0  0  0  0  0  0
  -66.7536   80.1155   71.8121 C   0  0  0  0  0  0  0  0  0  0  0  0
  -65.7452   80.6440   72.6104 C   0  0  0  0  0  0  0  0  0  0  0  0
  -65.2054   82.0371   72.3091 C   0  0  1  0  0  0  0  0  0  0  0  0
  -65.7074   82.5980   70.9761 C   0  0  0  0  0  0  0  0  0  0  0  0
  -65.5267   82.9229   73.5172 C   0  0  0  0  0  0  0  0  0  0  0  0
  -65.6243   84.1450   73.4124 O   0  0  0  0  0  0  0  0  0  0  0  0
  -65.6735   82.2647   74.6894 N   0  0  0  0  0  0  0  0  0  0  0  0
  -64.7810   82.3466   75.7714 C   0  0  0  0  0  0  0  0  0  0  0  0
  1  2  2  0
  1  3  1  0
  2 19  1  0
  3  4  2  0
  4  5  1  0
  6  5  1  6
  5 19  2  0
  7 11  2  0
  7 13  1  0
  8  9  1  0
  8 10  2  0
  8 12  1  0
 10 11  1  0
 12 13  2  0
 13 14  1  0
 15 14  1  6
 14 16  1  1
 16 17  2  0
 16 18  1  0
 18 19  1  0
M  END
$$$$
