
     RDKit          3D

 19 20  0  0  0  0  0  0  0  0999 V2000
  -31.2221  -14.0141  106.1195 N   0  0  0  0  0  0  0  0  0  0  0  0
  -30.4673  -15.0882  105.8667 C   0  0  0  0  0  0  0  0  0  0  0  0
  -30.9886  -13.3535  107.2596 C   0  0  0  0  0  0  0  0  0  0  0  0
  -30.0034  -13.7071  108.1623 C   0  0  0  0  0  0  0  0  0  0  0  0
  -29.1963  -14.8065  107.8984 C   0  0  0  0  0  0  0  0  0  0  0  0
  -28.0359  -15.1407  108.8006 C   0  0  0  0  0  0  0  0  0  0  0  0
  -29.9573  -18.5370  110.0212 C   0  0  0  0  0  0  0  0  0  0  0  0
  -29.9152  -15.7933  109.8442 C   0  0  0  0  0  0  0  0  0  0  0  0
  -29.8163  -14.0580  109.7588 Cl  0  0  0  0  0  0  0  0  0  0  0  0
  -30.5380  -16.3846  110.9260 C   0  0  0  0  0  0  0  0  0  0  0  0
  -30.5310  -17.7702  111.0228 C   0  0  0  0  0  0  0  0  0  0  0  0
  -29.3398  -16.5441  108.8395 C   0  0  0  0  0  0  0  0  0  0  0  0
  -29.3864  -17.9324  108.9064 C   0  0  0  0  0  0  0  0  0  0  0  0
  -28.9193  -18.7550  107.7114 C   0  0  1  0  0  0  0  0  0  0  0  0
  -29.4961  -20.1730  107.6988 C   0  0  0  0  0  0  0  0  0  0  0  0
  -29.2315  -17.9451  106.4489 C   0  0  0  0  0  0  0  0  0  0  0  0
  -29.8831  -18.4234  105.5213 O   0  0  0  0  0  0  0  0  0  0  0  0
  -28.7261  -16.6909  106.4313 N   0  0  0  0  0  0  0  0  0  0  0  0
  -29.4585  -15.5278  106.7222 C   0  0  0  0  0  0  0  0  0  0  0  0
  1  2  2  0
  1  3  1  0
  2 19  1  0
  3  4  2  0
  4  5  1  0
  6  5  1  6
  5 19  2  0
  7 11  2  0
  7 13  1  0
  8  9  1  0
  8 10  2  0
  8 12  1  0
 10 11  1  0
 12 13  2  0
 13 14  1  0
 15 14  1  6
 14 16  1  6
 16 17  2  0
 16 18  1  0
 18 19  1  0
M  END
$$$$
