
     RDKit          3D

 19 20  0  0  0  0  0  0  0  0999 V2000
  -10.6131   88.7869   50.6421 N   0  0  0  0  0  0  0  0  0  0  0  0
  -11.5375   89.1772   51.5256 C   0  0  0  0  0  0  0  0  0  0  0  0
   -9.4691   89.4801   50.6030 C   0  0  0  0  0  0  0  0  0  0  0  0
   -9.1908   90.5474   51.4361 C   0  0  0  0  0  0  0  0  0  0  0  0
  -10.1336   90.9463   52.3753 C   0  0  0  0  0  0  0  0  0  0  0  0
   -9.8093   92.0237   53.3782 C   0  0  0  0  0  0  0  0  0  0  0  0
  -14.3022   89.9503   55.2384 C   0  0  0  0  0  0  0  0  0  0  0  0
  -15.0769   87.3818   54.6358 C   0  0  0  0  0  0  0  0  0  0  0  0
  -15.6399   85.7763   54.2693 Cl  0  0  0  0  0  0  0  0  0  0  0  0
  -14.5326   87.6424   55.8781 C   0  0  0  0  0  0  0  0  0  0  0  0
  -14.1694   88.9474   56.1854 C   0  0  0  0  0  0  0  0  0  0  0  0
  -15.2153   88.3704   53.6830 C   0  0  0  0  0  0  0  0  0  0  0  0
  -14.7951   89.6646   53.9696 C   0  0  0  0  0  0  0  0  0  0  0  0
  -14.7751   90.7079   52.8588 C   0  0  1  0  0  0  0  0  0  0  0  0
  -15.9828   91.6479   52.8988 C   0  0  0  0  0  0  0  0  0  0  0  0
  -13.4243   91.4271   52.9317 C   0  0  0  0  0  0  0  0  0  0  0  0
  -13.3182   92.6262   52.6772 O   0  0  0  0  0  0  0  0  0  0  0  0
  -12.3752   90.6459   53.2749 N   0  0  0  0  0  0  0  0  0  0  0  0
  -11.3519   90.2480   52.3982 C   0  0  0  0  0  0  0  0  0  0  0  0
  1  2  2  0
  1  3  1  0
  2 19  1  0
  3  4  2  0
  4  5  1  0
  6  5  1  6
  5 19  2  0
  7 11  2  0
  7 13  1  0
  8  9  1  0
  8 10  2  0
  8 12  1  0
 10 11  1  0
 12 13  2  0
 13 14  1  0
 15 14  1  6
 14 16  1  1
 16 17  2  0
 16 18  1  0
 18 19  1  0
M  END
$$$$
