
     RDKit          3D

 19 20  0  0  0  0  0  0  0  0999 V2000
   38.6650   82.4790    0.0111 N   0  0  0  0  0  0  0  0  0  0  0  0
   38.1175   83.5418    0.6093 C   0  0  0  0  0  0  0  0  0  0  0  0
   39.6332   81.8331    0.6715 C   0  0  0  0  0  0  0  0  0  0  0  0
   40.0703   82.1904    1.9332 C   0  0  0  0  0  0  0  0  0  0  0  0
   39.4916   83.2779    2.5753 C   0  0  0  0  0  0  0  0  0  0  0  0
   39.8597   83.6142    3.9977 C   0  0  0  0  0  0  0  0  0  0  0  0
   34.9016   87.5769    0.8793 C   0  0  0  0  0  0  0  0  0  0  0  0
   37.0217   89.0034    1.8946 C   0  0  0  0  0  0  0  0  0  0  0  0
   38.3193   89.9266    2.5966 Cl  0  0  0  0  0  0  0  0  0  0  0  0
   36.2671   89.5578    0.8793 C   0  0  0  0  0  0  0  0  0  0  0  0
   35.1809   88.8432    0.3906 C   0  0  0  0  0  0  0  0  0  0  0  0
   36.7551   87.7437    2.3911 C   0  0  0  0  0  0  0  0  0  0  0  0
   35.7047   87.0037    1.8595 C   0  0  0  0  0  0  0  0  0  0  0  0
   35.5291   85.5482    2.2759 C   0  0  1  0  0  0  0  0  0  0  0  0
   35.2648   84.6146    1.0917 C   0  0  0  0  0  0  0  0  0  0  0  0
   36.7533   85.1612    3.1120 C   0  0  0  0  0  0  0  0  0  0  0  0
   36.6602   84.9108    4.3130 O   0  0  0  0  0  0  0  0  0  0  0  0
   37.9250   85.1357    2.4373 N   0  0  0  0  0  0  0  0  0  0  0  0
   38.5004   83.9842    1.8744 C   0  0  0  0  0  0  0  0  0  0  0  0
  1  2  2  0
  1  3  1  0
  2 19  1  0
  3  4  2  0
  4  5  1  0
  6  5  1  6
  5 19  2  0
  7 11  2  0
  7 13  1  0
  8  9  1  0
  8 10  2  0
  8 12  1  0
 10 11  1  0
 12 13  2  0
 13 14  1  0
 15 14  1  6
 14 16  1  6
 16 17  2  0
 16 18  1  0
 18 19  1  0
M  END
$$$$
