
     RDKit          3D

 19 20  0  0  0  0  0  0  0  0999 V2000
  -36.5920  148.2655   24.9444 N   0  0  0  0  0  0  0  0  0  0  0  0
  -37.3578  148.2459   26.0402 C   0  0  0  0  0  0  0  0  0  0  0  0
  -37.2118  148.3754   23.7635 C   0  0  0  0  0  0  0  0  0  0  0  0
  -38.5820  148.4936   23.6251 C   0  0  0  0  0  0  0  0  0  0  0  0
  -39.3861  148.4996   24.7579 C   0  0  0  0  0  0  0  0  0  0  0  0
  -40.8680  148.7517   24.6456 C   0  0  0  0  0  0  0  0  0  0  0  0
  -40.2810  144.8553   29.3649 C   0  0  0  0  0  0  0  0  0  0  0  0
  -38.6837  145.6081   31.4727 C   0  0  0  0  0  0  0  0  0  0  0  0
  -37.6153  146.0956   32.7570 Cl  0  0  0  0  0  0  0  0  0  0  0  0
  -38.8952  144.2630   31.2403 C   0  0  0  0  0  0  0  0  0  0  0  0
  -39.6804  143.8898   30.1571 C   0  0  0  0  0  0  0  0  0  0  0  0
  -39.2750  146.5803   30.6921 C   0  0  0  0  0  0  0  0  0  0  0  0
  -40.1102  146.2069   29.6448 C   0  0  0  0  0  0  0  0  0  0  0  0
  -40.9066  147.2756   28.9056 C   0  0  1  0  0  0  0  0  0  0  0  0
  -40.8678  148.6389   29.6009 C   0  0  0  0  0  0  0  0  0  0  0  0
  -40.4041  147.3008   27.4584 C   0  0  0  0  0  0  0  0  0  0  0  0
  -40.7873  146.4768   26.6289 O   0  0  0  0  0  0  0  0  0  0  0  0
  -39.5078  148.2740   27.1783 N   0  0  0  0  0  0  0  0  0  0  0  0
  -38.7473  148.3474   25.9993 C   0  0  0  0  0  0  0  0  0  0  0  0
  1  2  2  0
  1  3  1  0
  2 19  1  0
  3  4  2  0
  4  5  1  0
  6  5  1  6
  5 19  2  0
  7 11  2  0
  7 13  1  0
  8  9  1  0
  8 10  2  0
  8 12  1  0
 10 11  1  0
 12 13  2  0
 13 14  1  0
 15 14  1  6
 14 16  1  6
 16 17  2  0
 16 18  1  0
 18 19  1  0
M  END
$$$$
