
     RDKit          3D

 19 20  0  0  0  0  0  0  0  0999 V2000
 -157.5894 -442.0284  376.0629 N   0  0  0  0  0  0  0  0  0  0  0  0
 -158.7288 -441.3322  375.9948 C   0  0  0  0  0  0  0  0  0  0  0  0
 -157.5356 -443.0341  376.9440 C   0  0  0  0  0  0  0  0  0  0  0  0
 -158.5927 -443.3989  377.7563 C   0  0  0  0  0  0  0  0  0  0  0  0
 -159.7901 -442.6987  377.6767 C   0  0  0  0  0  0  0  0  0  0  0  0
 -160.9970 -443.1514  378.4581 C   0  0  0  0  0  0  0  0  0  0  0  0
 -165.7104 -440.3318  375.7432 C   0  0  0  0  0  0  0  0  0  0  0  0
 -165.6384 -442.6938  377.1492 C   0  0  0  0  0  0  0  0  0  0  0  0
 -165.5773 -444.2254  377.9733 Cl  0  0  0  0  0  0  0  0  0  0  0  0
 -166.8635 -442.1610  376.7983 C   0  0  0  0  0  0  0  0  0  0  0  0
 -166.8912 -440.9823  376.0641 C   0  0  0  0  0  0  0  0  0  0  0  0
 -164.4547 -442.0574  376.8362 C   0  0  0  0  0  0  0  0  0  0  0  0
 -164.4853 -440.8460  376.1541 C   0  0  0  0  0  0  0  0  0  0  0  0
 -163.1945 -440.0556  375.9750 C   0  0  1  0  0  0  0  0  0  0  0  0
 -162.9941 -438.9851  377.0510 C   0  0  0  0  0  0  0  0  0  0  0  0
 -162.0479 -441.0675  375.8832 C   0  0  0  0  0  0  0  0  0  0  0  0
 -162.1011 -442.0343  375.1240 O   0  0  0  0  0  0  0  0  0  0  0  0
 -161.0002 -440.8248  376.7032 N   0  0  0  0  0  0  0  0  0  0  0  0
 -159.8434 -441.6181  376.7812 C   0  0  0  0  0  0  0  0  0  0  0  0
  1  2  2  0
  1  3  1  0
  2 19  1  0
  3  4  2  0
  4  5  1  0
  6  5  1  6
  5 19  2  0
  7 11  2  0
  7 13  1  0
  8  9  1  0
  8 10  2  0
  8 12  1  0
 10 11  1  0
 12 13  2  0
 13 14  1  0
 15 14  1  6
 14 16  1  1
 16 17  2  0
 16 18  1  0
 18 19  1  0
M  END
$$$$
