
     RDKit          3D

 19 20  0  0  0  0  0  0  0  0999 V2000
  -28.6000   79.0544  -70.0451 N   0  0  0  0  0  0  0  0  0  0  0  0
  -28.2898   80.2894  -69.6375 C   0  0  0  0  0  0  0  0  0  0  0  0
  -27.9520   78.5796  -71.1153 C   0  0  0  0  0  0  0  0  0  0  0  0
  -26.9746   79.2831  -71.7938 C   0  0  0  0  0  0  0  0  0  0  0  0
  -26.6260   80.5574  -71.3646 C   0  0  0  0  0  0  0  0  0  0  0  0
  -25.4799   81.2967  -72.0064 C   0  0  0  0  0  0  0  0  0  0  0  0
  -28.3504   85.5678  -68.6207 C   0  0  0  0  0  0  0  0  0  0  0  0
  -26.3672   86.6494  -70.1884 C   0  0  0  0  0  0  0  0  0  0  0  0
  -25.0878   87.3740  -71.1195 Cl  0  0  0  0  0  0  0  0  0  0  0  0
  -27.6453   87.1656  -70.2756 C   0  0  0  0  0  0  0  0  0  0  0  0
  -28.6357   86.6326  -69.4605 C   0  0  0  0  0  0  0  0  0  0  0  0
  -26.0685   85.5896  -69.3567 C   0  0  0  0  0  0  0  0  0  0  0  0
  -27.0740   85.0166  -68.5857 C   0  0  0  0  0  0  0  0  0  0  0  0
  -26.7860   83.7345  -67.8137 C   0  0  1  0  0  0  0  0  0  0  0  0
  -27.9916   83.2337  -67.0141 C   0  0  0  0  0  0  0  0  0  0  0  0
  -26.2350   82.7129  -68.8137 C   0  0  0  0  0  0  0  0  0  0  0  0
  -25.1030   82.2447  -68.6989 O   0  0  0  0  0  0  0  0  0  0  0  0
  -27.0733   82.3880  -69.8239 N   0  0  0  0  0  0  0  0  0  0  0  0
  -27.3271   81.0783  -70.2647 C   0  0  0  0  0  0  0  0  0  0  0  0
  1  2  2  0
  1  3  1  0
  2 19  1  0
  3  4  2  0
  4  5  1  0
  6  5  1  6
  5 19  2  0
  7 11  2  0
  7 13  1  0
  8  9  1  0
  8 10  2  0
  8 12  1  0
 10 11  1  0
 12 13  2  0
 13 14  1  0
 15 14  1  6
 14 16  1  6
 16 17  2  0
 16 18  1  0
 18 19  1  0
M  END
$$$$
