
     RDKit          3D

 19 20  0  0  0  0  0  0  0  0999 V2000
  -18.3500  -26.0237   64.9440 N   0  0  0  0  0  0  0  0  0  0  0  0
  -19.0332  -24.8943   65.1566 C   0  0  0  0  0  0  0  0  0  0  0  0
  -18.6977  -26.7617   63.8832 C   0  0  0  0  0  0  0  0  0  0  0  0
  -19.6962  -26.4059   62.9962 C   0  0  0  0  0  0  0  0  0  0  0  0
  -20.3963  -25.2222   63.1926 C   0  0  0  0  0  0  0  0  0  0  0  0
  -21.4024  -24.7478   62.1755 C   0  0  0  0  0  0  0  0  0  0  0  0
  -17.5554  -22.7838   63.0002 C   0  0  0  0  0  0  0  0  0  0  0  0
  -18.5644  -24.4105   61.0263 C   0  0  0  0  0  0  0  0  0  0  0  0
  -19.2297  -25.4870   59.8317 Cl  0  0  0  0  0  0  0  0  0  0  0  0
  -17.2196  -24.4852   61.3325 C   0  0  0  0  0  0  0  0  0  0  0  0
  -16.7227  -23.6804   62.3497 C   0  0  0  0  0  0  0  0  0  0  0  0
  -19.4053  -23.5227   61.6658 C   0  0  0  0  0  0  0  0  0  0  0  0
  -18.8947  -22.6742   62.6420 C   0  0  0  0  0  0  0  0  0  0  0  0
  -19.7791  -21.5713   63.2115 C   0  0  1  0  0  0  0  0  0  0  0  0
  -20.9068  -21.1584   62.2621 C   0  0  0  0  0  0  0  0  0  0  0  0
  -20.2642  -22.0392   64.5874 C   0  0  0  0  0  0  0  0  0  0  0  0
  -20.1681  -21.3221   65.5826 O   0  0  0  0  0  0  0  0  0  0  0  0
  -20.7805  -23.2886   64.6202 N   0  0  0  0  0  0  0  0  0  0  0  0
  -20.0631  -24.4598   64.3242 C   0  0  0  0  0  0  0  0  0  0  0  0
  1  2  2  0
  1  3  1  0
  2 19  1  0
  3  4  2  0
  4  5  1  0
  6  5  1  6
  5 19  2  0
  7 11  2  0
  7 13  1  0
  8  9  1  0
  8 10  2  0
  8 12  1  0
 10 11  1  0
 12 13  2  0
 13 14  1  0
 15 14  1  6
 14 16  1  1
 16 17  2  0
 16 18  1  0
 18 19  1  0
M  END
$$$$
