
     RDKit          3D

 19 20  0  0  0  0  0  0  0  0999 V2000
   35.5309  136.0017   47.7518 N   0  0  0  0  0  0  0  0  0  0  0  0
   36.7355  135.4822   48.0095 C   0  0  0  0  0  0  0  0  0  0  0  0
   35.0790  135.9118   46.4954 C   0  0  0  0  0  0  0  0  0  0  0  0
   35.7750  135.2951   45.4729 C   0  0  0  0  0  0  0  0  0  0  0  0
   37.0167  134.7296   45.7342 C   0  0  0  0  0  0  0  0  0  0  0  0
   37.7409  133.9436   44.6713 C   0  0  0  0  0  0  0  0  0  0  0  0
   43.4364  133.6684   47.5509 C   0  0  0  0  0  0  0  0  0  0  0  0
   42.5696  134.1299   50.1192 C   0  0  0  0  0  0  0  0  0  0  0  0
   42.0332  134.4970   51.7335 Cl  0  0  0  0  0  0  0  0  0  0  0  0
   43.8610  133.6825   49.9190 C   0  0  0  0  0  0  0  0  0  0  0  0
   44.3006  133.4783   48.6173 C   0  0  0  0  0  0  0  0  0  0  0  0
   41.6981  134.3236   49.0669 C   0  0  0  0  0  0  0  0  0  0  0  0
   42.1199  134.0607   47.7681 C   0  0  0  0  0  0  0  0  0  0  0  0
   41.1058  134.0948   46.6310 C   0  0  1  0  0  0  0  0  0  0  0  0
   40.6615  132.7000   46.1832 C   0  0  0  0  0  0  0  0  0  0  0  0
   39.9537  135.0027   47.0734 C   0  0  0  0  0  0  0  0  0  0  0  0
   40.0954  136.2207   47.1745 O   0  0  0  0  0  0  0  0  0  0  0  0
   38.7951  134.3647   47.3554 N   0  0  0  0  0  0  0  0  0  0  0  0
   37.5153  134.8517   47.0415 C   0  0  0  0  0  0  0  0  0  0  0  0
  1  2  2  0
  1  3  1  0
  2 19  1  0
  3  4  2  0
  4  5  1  0
  6  5  1  6
  5 19  2  0
  7 11  2  0
  7 13  1  0
  8  9  1  0
  8 10  2  0
  8 12  1  0
 10 11  1  0
 12 13  2  0
 13 14  1  0
 15 14  1  6
 14 16  1  1
 16 17  2  0
 16 18  1  0
 18 19  1  0
M  END
$$$$
