
     RDKit          3D

 19 20  0  0  0  0  0  0  0  0999 V2000
    2.8288  -24.0099  -79.7790 N   0  0  0  0  0  0  0  0  0  0  0  0
    3.5277  -23.4026  -80.7434 C   0  0  0  0  0  0  0  0  0  0  0  0
    1.6351  -24.5158  -80.1108 C   0  0  0  0  0  0  0  0  0  0  0  0
    1.1091  -24.4642  -81.3879 C   0  0  0  0  0  0  0  0  0  0  0  0
    1.8370  -23.8578  -82.4039 C   0  0  0  0  0  0  0  0  0  0  0  0
    1.3457  -23.8965  -83.8283 C   0  0  0  0  0  0  0  0  0  0  0  0
    2.1719  -24.1349  -86.8813 C   0  0  0  0  0  0  0  0  0  0  0  0
   -0.0028  -25.0942  -85.4989 C   0  0  0  0  0  0  0  0  0  0  0  0
   -1.3316  -25.7457  -84.5832 Cl  0  0  0  0  0  0  0  0  0  0  0  0
    0.2706  -25.6036  -86.7534 C   0  0  0  0  0  0  0  0  0  0  0  0
    1.3868  -25.1342  -87.4338 C   0  0  0  0  0  0  0  0  0  0  0  0
    0.7703  -24.0992  -84.9362 C   0  0  0  0  0  0  0  0  0  0  0  0
    1.8521  -23.5866  -85.6438 C   0  0  0  0  0  0  0  0  0  0  0  0
    2.5877  -22.3656  -85.1046 C   0  0  1  0  0  0  0  0  0  0  0  0
    1.6878  -21.4396  -84.2822 C   0  0  0  0  0  0  0  0  0  0  0  0
    3.8186  -22.8719  -84.3458 C   0  0  0  0  0  0  0  0  0  0  0  0
    4.7161  -23.4922  -84.9146 O   0  0  0  0  0  0  0  0  0  0  0  0
    3.8282  -22.6013  -83.0208 N   0  0  0  0  0  0  0  0  0  0  0  0
    3.0745  -23.2914  -82.0567 C   0  0  0  0  0  0  0  0  0  0  0  0
  1  2  2  0
  1  3  1  0
  2 19  1  0
  3  4  2  0
  4  5  1  0
  6  5  1  6
  5 19  2  0
  7 11  2  0
  7 13  1  0
  8  9  1  0
  8 10  2  0
  8 12  1  0
 10 11  1  0
 12 13  2  0
 13 14  1  0
 15 14  1  6
 14 16  1  1
 16 17  2  0
 16 18  1  0
 18 19  1  0
M  END
$$$$
