
     RDKit          3D

 19 20  0  0  0  0  0  0  0  0999 V2000
 -143.1374  -74.7145  -64.6608 N   0  0  0  0  0  0  0  0  0  0  0  0
 -142.4055  -75.3906  -63.7694 C   0  0  0  0  0  0  0  0  0  0  0  0
 -142.4879  -74.1411  -65.6807 C   0  0  0  0  0  0  0  0  0  0  0  0
 -141.1216  -74.2339  -65.8684 C   0  0  0  0  0  0  0  0  0  0  0  0
 -140.3538  -74.9547  -64.9624 C   0  0  0  0  0  0  0  0  0  0  0  0
 -138.8834  -75.1770  -65.2087 C   0  0  0  0  0  0  0  0  0  0  0  0
 -137.0648  -76.4848  -63.7743 C   0  0  0  0  0  0  0  0  0  0  0  0
 -135.9712  -78.9963  -63.5357 C   0  0  0  0  0  0  0  0  0  0  0  0
 -135.2226  -80.5555  -63.3424 Cl  0  0  0  0  0  0  0  0  0  0  0  0
 -135.7625  -78.2835  -64.7002 C   0  0  0  0  0  0  0  0  0  0  0  0
 -136.2946  -77.0045  -64.8024 C   0  0  0  0  0  0  0  0  0  0  0  0
 -136.7357  -78.4915  -62.5037 C   0  0  0  0  0  0  0  0  0  0  0  0
 -137.3189  -77.2355  -62.6314 C   0  0  0  0  0  0  0  0  0  0  0  0
 -138.3106  -76.7605  -61.5761 C   0  0  1  0  0  0  0  0  0  0  0  0
 -137.6321  -76.2756  -60.2923 C   0  0  0  0  0  0  0  0  0  0  0  0
 -139.2137  -75.7135  -62.2360 C   0  0  0  0  0  0  0  0  0  0  0  0
 -138.9657  -74.5105  -62.1630 O   0  0  0  0  0  0  0  0  0  0  0  0
 -140.2953  -76.2103  -62.8781 N   0  0  0  0  0  0  0  0  0  0  0  0
 -141.0221  -75.5287  -63.8686 C   0  0  0  0  0  0  0  0  0  0  0  0
  1  2  2  0
  1  3  1  0
  2 19  1  0
  3  4  2  0
  4  5  1  0
  6  5  1  6
  5 19  2  0
  7 11  2  0
  7 13  1  0
  8  9  1  0
  8 10  2  0
  8 12  1  0
 10 11  1  0
 12 13  2  0
 13 14  1  0
 15 14  1  6
 14 16  1  6
 16 17  2  0
 16 18  1  0
 18 19  1  0
M  END
$$$$
