
     RDKit          3D

 19 20  0  0  0  0  0  0  0  0999 V2000
   21.9719   35.5558   10.3553 N   0  0  0  0  0  0  0  0  0  0  0  0
   20.8058   35.8064   10.9594 C   0  0  0  0  0  0  0  0  0  0  0  0
   21.9451   35.3329    9.0361 C   0  0  0  0  0  0  0  0  0  0  0  0
   20.7919   35.3736    8.2752 C   0  0  0  0  0  0  0  0  0  0  0  0
   19.5777   35.6576    8.8876 C   0  0  0  0  0  0  0  0  0  0  0  0
   18.3259   35.8312    8.0660 C   0  0  0  0  0  0  0  0  0  0  0  0
   18.2952   37.0007   14.2827 C   0  0  0  0  0  0  0  0  0  0  0  0
   20.8329   37.1073   15.3361 C   0  0  0  0  0  0  0  0  0  0  0  0
   22.4545   37.1080   15.9678 Cl  0  0  0  0  0  0  0  0  0  0  0  0
   19.7929   36.6798   16.1382 C   0  0  0  0  0  0  0  0  0  0  0  0
   18.5186   36.6021   15.5910 C   0  0  0  0  0  0  0  0  0  0  0  0
   20.6254   37.5070   14.0317 C   0  0  0  0  0  0  0  0  0  0  0  0
   19.3393   37.4867   13.5031 C   0  0  0  0  0  0  0  0  0  0  0  0
   19.0842   38.1018   12.1322 C   0  0  1  0  0  0  0  0  0  0  0  0
   20.3578   38.2472   11.2951 C   0  0  0  0  0  0  0  0  0  0  0  0
   17.9869   37.2731   11.4565 C   0  0  0  0  0  0  0  0  0  0  0  0
   16.8265   37.6760   11.3859 O   0  0  0  0  0  0  0  0  0  0  0  0
   18.3880   36.0771   10.9692 N   0  0  0  0  0  0  0  0  0  0  0  0
   19.5911   35.8563   10.2779 C   0  0  0  0  0  0  0  0  0  0  0  0
  1  2  2  0
  1  3  1  0
  2 19  1  0
  3  4  2  0
  4  5  1  0
  6  5  1  6
  5 19  2  0
  7 11  2  0
  7 13  1  0
  8  9  1  0
  8 10  2  0
  8 12  1  0
 10 11  1  0
 12 13  2  0
 13 14  1  0
 15 14  1  6
 14 16  1  6
 16 17  2  0
 16 18  1  0
 18 19  1  0
M  END
$$$$
