
     RDKit          3D

 19 20  0  0  0  0  0  0  0  0999 V2000
  -74.8474  120.4450   70.5488 N   0  0  0  0  0  0  0  0  0  0  0  0
  -74.5151  119.6721   71.5878 C   0  0  0  0  0  0  0  0  0  0  0  0
  -75.2996  121.6754   70.8182 C   0  0  0  0  0  0  0  0  0  0  0  0
  -75.4142  122.1869   72.0971 C   0  0  0  0  0  0  0  0  0  0  0  0
  -75.0484  121.4020   73.1833 C   0  0  0  0  0  0  0  0  0  0  0  0
  -75.0447  121.9748   74.5775 C   0  0  0  0  0  0  0  0  0  0  0  0
  -70.4047  116.3126   74.6313 C   0  0  0  0  0  0  0  0  0  0  0  0
  -72.3625  114.5627   75.4473 C   0  0  0  0  0  0  0  0  0  0  0  0
  -73.5951  113.4838   76.0349 Cl  0  0  0  0  0  0  0  0  0  0  0  0
  -71.0708  114.0980   75.2949 C   0  0  0  0  0  0  0  0  0  0  0  0
  -70.0819  114.9940   74.9093 C   0  0  0  0  0  0  0  0  0  0  0  0
  -72.6984  115.8731   75.1743 C   0  0  0  0  0  0  0  0  0  0  0  0
  -71.7196  116.7551   74.7297 C   0  0  0  0  0  0  0  0  0  0  0  0
  -72.1255  118.1442   74.2519 C   0  0  1  0  0  0  0  0  0  0  0  0
  -71.1994  118.6979   73.1659 C   0  0  0  0  0  0  0  0  0  0  0  0
  -73.5984  118.0722   73.8361 C   0  0  0  0  0  0  0  0  0  0  0  0
  -74.0947  117.0342   73.3998 O   0  0  0  0  0  0  0  0  0  0  0  0
  -74.2900  119.2266   73.9689 N   0  0  0  0  0  0  0  0  0  0  0  0
  -74.6076  120.0963   72.9122 C   0  0  0  0  0  0  0  0  0  0  0  0
  1  2  2  0
  1  3  1  0
  2 19  1  0
  3  4  2  0
  4  5  1  0
  6  5  1  6
  5 19  2  0
  7 11  2  0
  7 13  1  0
  8  9  1  0
  8 10  2  0
  8 12  1  0
 10 11  1  0
 12 13  2  0
 13 14  1  0
 15 14  1  6
 14 16  1  6
 16 17  2  0
 16 18  1  0
 18 19  1  0
M  END
$$$$
