
     RDKit          3D

 19 20  0  0  0  0  0  0  0  0999 V2000
   44.4463   -9.1928  -20.2974 N   0  0  0  0  0  0  0  0  0  0  0  0
   45.6162   -8.7359  -20.7556 C   0  0  0  0  0  0  0  0  0  0  0  0
   43.5917   -9.7008  -21.1932 C   0  0  0  0  0  0  0  0  0  0  0  0
   43.8657   -9.7980  -22.5444 C   0  0  0  0  0  0  0  0  0  0  0  0
   45.0881   -9.3495  -23.0287 C   0  0  0  0  0  0  0  0  0  0  0  0
   45.4635   -9.5561  -24.4738 C   0  0  0  0  0  0  0  0  0  0  0  0
   48.3611  -11.1293  -22.7313 C   0  0  0  0  0  0  0  0  0  0  0  0
   47.2825  -11.9568  -20.3412 C   0  0  0  0  0  0  0  0  0  0  0  0
   46.6671  -12.5136  -18.8116 Cl  0  0  0  0  0  0  0  0  0  0  0  0
   46.9901  -12.6673  -21.4890 C   0  0  0  0  0  0  0  0  0  0  0  0
   47.5609  -12.2598  -22.6879 C   0  0  0  0  0  0  0  0  0  0  0  0
   48.0778  -10.8294  -20.3694 C   0  0  0  0  0  0  0  0  0  0  0  0
   48.5996  -10.3866  -21.5800 C   0  0  0  0  0  0  0  0  0  0  0  0
   49.3185   -9.0440  -21.6383 C   0  0  1  0  0  0  0  0  0  0  0  0
   50.3689   -8.9754  -22.7499 C   0  0  0  0  0  0  0  0  0  0  0  0
   48.2452   -7.9545  -21.7285 C   0  0  0  0  0  0  0  0  0  0  0  0
   48.3370   -6.9053  -21.0923 O   0  0  0  0  0  0  0  0  0  0  0  0
   47.1995   -8.2435  -22.5359 N   0  0  0  0  0  0  0  0  0  0  0  0
   45.9764   -8.7808  -22.1012 C   0  0  0  0  0  0  0  0  0  0  0  0
  1  2  2  0
  1  3  1  0
  2 19  1  0
  3  4  2  0
  4  5  1  0
  6  5  1  6
  5 19  2  0
  7 11  2  0
  7 13  1  0
  8  9  1  0
  8 10  2  0
  8 12  1  0
 10 11  1  0
 12 13  2  0
 13 14  1  0
 15 14  1  6
 14 16  1  6
 16 17  2  0
 16 18  1  0
 18 19  1  0
M  END
$$$$
