
     RDKit          3D

 19 20  0  0  0  0  0  0  0  0999 V2000
   62.1959   54.1666  163.0663 N   0  0  0  0  0  0  0  0  0  0  0  0
   61.0557   54.8462  163.2255 C   0  0  0  0  0  0  0  0  0  0  0  0
   62.2195   53.2182  162.1223 C   0  0  0  0  0  0  0  0  0  0  0  0
   61.1470   52.9290  161.2997 C   0  0  0  0  0  0  0  0  0  0  0  0
   59.9650   53.6455  161.4390 C   0  0  0  0  0  0  0  0  0  0  0  0
   58.8239   53.4380  160.4761 C   0  0  0  0  0  0  0  0  0  0  0  0
   58.5151   56.7642  159.9513 C   0  0  0  0  0  0  0  0  0  0  0  0
   60.2186   55.5994  158.1340 C   0  0  0  0  0  0  0  0  0  0  0  0
   61.3485   54.8543  157.0402 Cl  0  0  0  0  0  0  0  0  0  0  0  0
   60.1031   56.9756  158.1562 C   0  0  0  0  0  0  0  0  0  0  0  0
   59.2618   57.5582  159.0955 C   0  0  0  0  0  0  0  0  0  0  0  0
   59.4814   54.7964  158.9802 C   0  0  0  0  0  0  0  0  0  0  0  0
   58.5937   55.3775  159.8792 C   0  0  0  0  0  0  0  0  0  0  0  0
   57.6484   54.4881  160.6779 C   0  0  1  0  0  0  0  0  0  0  0  0
   58.0496   53.0110  160.6498 C   0  0  0  0  0  0  0  0  0  0  0  0
   57.5475   55.0786  162.0881 C   0  0  0  0  0  0  0  0  0  0  0  0
   56.4593   55.3171  162.6104 O   0  0  0  0  0  0  0  0  0  0  0  0
   58.7313   55.3280  162.6925 N   0  0  0  0  0  0  0  0  0  0  0  0
   59.9192   54.6174  162.4518 C   0  0  0  0  0  0  0  0  0  0  0  0
  1  2  2  0
  1  3  1  0
  2 19  1  0
  3  4  2  0
  4  5  1  0
  6  5  1  6
  5 19  2  0
  7 11  2  0
  7 13  1  0
  8  9  1  0
  8 10  2  0
  8 12  1  0
 10 11  1  0
 12 13  2  0
 13 14  1  0
 15 14  1  6
 14 16  1  1
 16 17  2  0
 16 18  1  0
 18 19  1  0
M  END
$$$$
