
     RDKit          3D

 19 20  0  0  0  0  0  0  0  0999 V2000
 4208.4443  405.6906 5546.8950 N   0  0  0  0  0  0  0  0  0  0  0  0
 4208.7559  405.3262 5545.6460 C   0  0  0  0  0  0  0  0  0  0  0  0
 4209.3882  406.3217 5547.6025 C   0  0  0  0  0  0  0  0  0  0  0  0
 4210.6396  406.6371 5547.1084 C   0  0  0  0  0  0  0  0  0  0  0  0
 4210.9658  406.2879 5545.8037 C   0  0  0  0  0  0  0  0  0  0  0  0
 4212.2729  406.7268 5545.1958 C   0  0  0  0  0  0  0  0  0  0  0  0
 4214.2598  404.6329 5541.7793 C   0  0  0  0  0  0  0  0  0  0  0  0
 4213.6685  403.1693 5539.5288 C   0  0  0  0  0  0  0  0  0  0  0  0
 4213.2705  402.1867 5538.1465 Cl  0  0  0  0  0  0  0  0  0  0  0  0
 4214.9800  403.2508 5539.9453 C   0  0  0  0  0  0  0  0  0  0  0  0
 4215.2700  403.9684 5541.0977 C   0  0  0  0  0  0  0  0  0  0  0  0
 4212.6509  403.8256 5540.1924 C   0  0  0  0  0  0  0  0  0  0  0  0
 4212.9507  404.5952 5541.3130 C   0  0  0  0  0  0  0  0  0  0  0  0
 4211.8647  405.4645 5541.9336 C   0  0  1  0  0  0  0  0  0  0  0  0
 4210.6509  405.6499 5541.0195 C   0  0  0  0  0  0  0  0  0  0  0  0
 4211.5293  404.8642 5543.3032 C   0  0  0  0  0  0  0  0  0  0  0  0
 4212.3325  404.1713 5543.9189 O   0  0  0  0  0  0  0  0  0  0  0  0
 4210.2871  405.1444 5543.7637 N   0  0  0  0  0  0  0  0  0  0  0  0
 4209.9946  405.5891 5545.0630 C   0  0  0  0  0  0  0  0  0  0  0  0
  1  2  2  0
  1  3  1  0
  2 19  1  0
  3  4  2  0
  4  5  1  0
  6  5  1  6
  5 19  2  0
  7 11  2  0
  7 13  1  0
  8  9  1  0
  8 10  2  0
  8 12  1  0
 10 11  1  0
 12 13  2  0
 13 14  1  0
 15 14  1  6
 14 16  1  1
 16 17  2  0
 16 18  1  0
 18 19  1  0
M  END
$$$$
