
     RDKit          3D

 19 20  0  0  0  0  0  0  0  0999 V2000
  -34.4327   13.1448  -26.7699 N   0  0  0  0  0  0  0  0  0  0  0  0
  -33.7295   13.3665  -25.6546 C   0  0  0  0  0  0  0  0  0  0  0  0
  -35.6124   13.7656  -26.8861 C   0  0  0  0  0  0  0  0  0  0  0  0
  -36.1198   14.6313  -25.9354 C   0  0  0  0  0  0  0  0  0  0  0  0
  -35.3868   14.8889  -24.7838 C   0  0  0  0  0  0  0  0  0  0  0  0
  -35.8557   15.9211  -23.7905 C   0  0  0  0  0  0  0  0  0  0  0  0
  -28.8583   14.4575  -21.6345 C   0  0  0  0  0  0  0  0  0  0  0  0
  -28.2125   14.1525  -24.2897 C   0  0  0  0  0  0  0  0  0  0  0  0
  -27.8089   13.8834  -25.9610 Cl  0  0  0  0  0  0  0  0  0  0  0  0
  -27.2034   14.4007  -23.3799 C   0  0  0  0  0  0  0  0  0  0  0  0
  -27.5340   14.5259  -22.0367 C   0  0  0  0  0  0  0  0  0  0  0  0
  -29.5355   14.0817  -23.9036 C   0  0  0  0  0  0  0  0  0  0  0  0
  -29.8722   14.2677  -22.5673 C   0  0  0  0  0  0  0  0  0  0  0  0
  -31.3406   14.3752  -22.1739 C   0  0  1  0  0  0  0  0  0  0  0  0
  -31.5719   15.2911  -20.9692 C   0  0  0  0  0  0  0  0  0  0  0  0
  -32.1206   14.7864  -23.4269 C   0  0  0  0  0  0  0  0  0  0  0  0
  -31.6011   15.4574  -24.3178 O   0  0  0  0  0  0  0  0  0  0  0  0
  -33.4079   14.3738  -23.4635 N   0  0  0  0  0  0  0  0  0  0  0  0
  -34.1645   14.2130  -24.6364 C   0  0  0  0  0  0  0  0  0  0  0  0
  1  2  2  0
  1  3  1  0
  2 19  1  0
  3  4  2  0
  4  5  1  0
  6  5  1  6
  5 19  2  0
  7 11  2  0
  7 13  1  0
  8  9  1  0
  8 10  2  0
  8 12  1  0
 10 11  1  0
 12 13  2  0
 13 14  1  0
 15 14  1  6
 14 16  1  6
 16 17  2  0
 16 18  1  0
 18 19  1  0
M  END
$$$$
