
     RDKit          3D

 19 20  0  0  0  0  0  0  0  0999 V2000
  -47.8459   61.8123   -8.2588 N   0  0  0  0  0  0  0  0  0  0  0  0
  -47.5367   61.3723   -7.0348 C   0  0  0  0  0  0  0  0  0  0  0  0
  -46.9982   62.6727   -8.8349 C   0  0  0  0  0  0  0  0  0  0  0  0
  -45.8239   63.1022   -8.2457 C   0  0  0  0  0  0  0  0  0  0  0  0
  -45.4795   62.6326   -6.9845 C   0  0  0  0  0  0  0  0  0  0  0  0
  -44.1485   62.9854   -6.3714 C   0  0  0  0  0  0  0  0  0  0  0  0
  -48.5835   59.7733   -3.3497 C   0  0  0  0  0  0  0  0  0  0  0  0
  -50.3876   61.6470   -2.4579 C   0  0  0  0  0  0  0  0  0  0  0  0
  -51.5237   62.8024   -1.8232 Cl  0  0  0  0  0  0  0  0  0  0  0  0
  -50.8556   60.5321   -3.1255 C   0  0  0  0  0  0  0  0  0  0  0  0
  -49.9407   59.5764   -3.5484 C   0  0  0  0  0  0  0  0  0  0  0  0
  -49.0391   61.8562   -2.2528 C   0  0  0  0  0  0  0  0  0  0  0  0
  -48.1194   60.9287   -2.7301 C   0  0  0  0  0  0  0  0  0  0  0  0
  -46.6311   61.2513   -2.6687 C   0  0  1  0  0  0  0  0  0  0  0  0
  -45.7587   60.0121   -2.4524 C   0  0  0  0  0  0  0  0  0  0  0  0
  -46.2829   62.0445   -3.9324 C   0  0  0  0  0  0  0  0  0  0  0  0
  -46.1719   63.2697   -3.9140 O   0  0  0  0  0  0  0  0  0  0  0  0
  -46.1283   61.3022   -5.0522 N   0  0  0  0  0  0  0  0  0  0  0  0
  -46.3816   61.7581   -6.3568 C   0  0  0  0  0  0  0  0  0  0  0  0
  1  2  2  0
  1  3  1  0
  2 19  1  0
  3  4  2  0
  4  5  1  0
  6  5  1  6
  5 19  2  0
  7 11  2  0
  7 13  1  0
  8  9  1  0
  8 10  2  0
  8 12  1  0
 10 11  1  0
 12 13  2  0
 13 14  1  0
 15 14  1  6
 14 16  1  6
 16 17  2  0
 16 18  1  0
 18 19  1  0
M  END
$$$$
