
     RDKit          3D

 19 20  0  0  0  0  0  0  0  0999 V2000
   77.3757   18.3918   31.2449 N   0  0  0  0  0  0  0  0  0  0  0  0
   77.1577   19.7033   31.1040 C   0  0  0  0  0  0  0  0  0  0  0  0
   77.6930   17.9495   32.4674 C   0  0  0  0  0  0  0  0  0  0  0  0
   77.7798   18.7662   33.5792 C   0  0  0  0  0  0  0  0  0  0  0  0
   77.5309   20.1268   33.4501 C   0  0  0  0  0  0  0  0  0  0  0  0
   77.4960   21.0191   34.6643 C   0  0  0  0  0  0  0  0  0  0  0  0
   77.1854   22.5664   28.7223 C   0  0  0  0  0  0  0  0  0  0  0  0
   78.1245   19.9876   28.8915 C   0  0  0  0  0  0  0  0  0  0  0  0
   78.7780   18.3759   28.9538 Cl  0  0  0  0  0  0  0  0  0  0  0  0
   77.0961   20.2691   28.0133 C   0  0  0  0  0  0  0  0  0  0  0  0
   76.6459   21.5792   27.9132 C   0  0  0  0  0  0  0  0  0  0  0  0
   78.6713   20.9605   29.7031 C   0  0  0  0  0  0  0  0  0  0  0  0
   78.1787   22.2597   29.6461 C   0  0  0  0  0  0  0  0  0  0  0  0
   78.6521   23.2849   30.6697 C   0  0  1  0  0  0  0  0  0  0  0  0
   78.3903   24.7293   30.2353 C   0  0  0  0  0  0  0  0  0  0  0  0
   78.0175   22.9148   32.0142 C   0  0  0  0  0  0  0  0  0  0  0  0
   78.3931   23.4288   33.0672 O   0  0  0  0  0  0  0  0  0  0  0  0
   77.0414   21.9810   31.9512 N   0  0  0  0  0  0  0  0  0  0  0  0
   77.2337   20.6055   32.1636 C   0  0  0  0  0  0  0  0  0  0  0  0
  1  2  2  0
  1  3  1  0
  2 19  1  0
  3  4  2  0
  4  5  1  0
  6  5  1  6
  5 19  2  0
  7 11  2  0
  7 13  1  0
  8  9  1  0
  8 10  2  0
  8 12  1  0
 10 11  1  0
 12 13  2  0
 13 14  1  0
 15 14  1  6
 14 16  1  1
 16 17  2  0
 16 18  1  0
 18 19  1  0
M  END
$$$$
