
     RDKit          3D

 19 20  0  0  0  0  0  0  0  0999 V2000
  -74.5107 -110.7651   97.0440 N   0  0  0  0  0  0  0  0  0  0  0  0
  -73.4508 -110.5208   97.8213 C   0  0  0  0  0  0  0  0  0  0  0  0
  -75.4569 -109.8209   96.9804 C   0  0  0  0  0  0  0  0  0  0  0  0
  -75.3807 -108.6134   97.6488 C   0  0  0  0  0  0  0  0  0  0  0  0
  -74.2724 -108.3379   98.4398 C   0  0  0  0  0  0  0  0  0  0  0  0
  -74.1036 -106.9834   99.0792 C   0  0  0  0  0  0  0  0  0  0  0  0
  -70.1164 -107.7726  103.6463 C   0  0  0  0  0  0  0  0  0  0  0  0
  -72.6951 -107.8896  104.5938 C   0  0  0  0  0  0  0  0  0  0  0  0
  -74.3371 -107.8910  105.1703 Cl  0  0  0  0  0  0  0  0  0  0  0  0
  -71.6630 -107.6781  105.4869 C   0  0  0  0  0  0  0  0  0  0  0  0
  -70.3659 -107.5925  104.9975 C   0  0  0  0  0  0  0  0  0  0  0  0
  -72.4616 -108.0705  103.2457 C   0  0  0  0  0  0  0  0  0  0  0  0
  -71.1571 -108.0453  102.7649 C   0  0  0  0  0  0  0  0  0  0  0  0
  -70.8867 -108.4296  101.3150 C   0  0  1  0  0  0  0  0  0  0  0  0
  -69.8919 -109.5850  101.1776 C   0  0  0  0  0  0  0  0  0  0  0  0
  -72.2424 -108.6935  100.6518 C   0  0  0  0  0  0  0  0  0  0  0  0
  -73.3002 -108.5108  101.2530 O   0  0  0  0  0  0  0  0  0  0  0  0
  -72.1808 -109.1523   99.3811 N   0  0  0  0  0  0  0  0  0  0  0  0
  -73.2919 -109.3383   98.5418 C   0  0  0  0  0  0  0  0  0  0  0  0
  1  2  2  0
  1  3  1  0
  2 19  1  0
  3  4  2  0
  4  5  1  0
  6  5  1  6
  5 19  2  0
  7 11  2  0
  7 13  1  0
  8  9  1  0
  8 10  2  0
  8 12  1  0
 10 11  1  0
 12 13  2  0
 13 14  1  0
 15 14  1  6
 14 16  1  1
 16 17  2  0
 16 18  1  0
 18 19  1  0
M  END
$$$$
