
     RDKit          3D

 19 20  0  0  0  0  0  0  0  0999 V2000
  -76.4277  -27.1788   47.2249 N   0  0  0  0  0  0  0  0  0  0  0  0
  -76.8062  -28.2405   46.5058 C   0  0  0  0  0  0  0  0  0  0  0  0
  -76.6659  -27.2117   48.5413 C   0  0  0  0  0  0  0  0  0  0  0  0
  -77.2521  -28.2839   49.1875 C   0  0  0  0  0  0  0  0  0  0  0  0
  -77.6269  -29.4029   48.4546 C   0  0  0  0  0  0  0  0  0  0  0  0
  -78.1525  -30.6337   49.1482 C   0  0  0  0  0  0  0  0  0  0  0  0
  -77.2486  -33.8228   47.3292 C   0  0  0  0  0  0  0  0  0  0  0  0
  -76.5721  -35.7041   45.4413 C   0  0  0  0  0  0  0  0  0  0  0  0
  -76.2070  -36.9344   44.2658 Cl  0  0  0  0  0  0  0  0  0  0  0  0
  -75.9338  -35.7255   46.6660 C   0  0  0  0  0  0  0  0  0  0  0  0
  -76.3005  -34.7894   47.6244 C   0  0  0  0  0  0  0  0  0  0  0  0
  -77.5181  -34.7477   45.1334 C   0  0  0  0  0  0  0  0  0  0  0  0
  -77.8410  -33.7736   46.0718 C   0  0  0  0  0  0  0  0  0  0  0  0
  -78.7423  -32.6135   45.6660 C   0  0  1  0  0  0  0  0  0  0  0  0
  -80.2033  -33.0291   45.4753 C   0  0  0  0  0  0  0  0  0  0  0  0
  -78.5424  -31.4974   46.6963 C   0  0  0  0  0  0  0  0  0  0  0  0
  -79.0124  -31.5759   47.8307 O   0  0  0  0  0  0  0  0  0  0  0  0
  -77.8354  -30.4310   46.2583 N   0  0  0  0  0  0  0  0  0  0  0  0
  -77.4144  -29.3620   47.0669 C   0  0  0  0  0  0  0  0  0  0  0  0
  1  2  2  0
  1  3  1  0
  2 19  1  0
  3  4  2  0
  4  5  1  0
  6  5  1  6
  5 19  2  0
  7 11  2  0
  7 13  1  0
  8  9  1  0
  8 10  2  0
  8 12  1  0
 10 11  1  0
 12 13  2  0
 13 14  1  0
 15 14  1  6
 14 16  1  1
 16 17  2  0
 16 18  1  0
 18 19  1  0
M  END
$$$$
