
     RDKit          3D

 19 20  0  0  0  0  0  0  0  0999 V2000
  -40.7245  -22.5260  135.6685 N   0  0  0  0  0  0  0  0  0  0  0  0
  -39.6200  -21.8528  136.0065 C   0  0  0  0  0  0  0  0  0  0  0  0
  -40.7687  -23.8278  135.9751 C   0  0  0  0  0  0  0  0  0  0  0  0
  -39.7544  -24.4942  136.6368 C   0  0  0  0  0  0  0  0  0  0  0  0
  -38.6125  -23.7995  137.0154 C   0  0  0  0  0  0  0  0  0  0  0  0
  -37.5472  -24.4686  137.8457 C   0  0  0  0  0  0  0  0  0  0  0  0
  -33.2476  -19.4248  136.3542 C   0  0  0  0  0  0  0  0  0  0  0  0
  -34.5456  -18.1435  134.2965 C   0  0  0  0  0  0  0  0  0  0  0  0
  -35.3312  -17.3792  132.9448 Cl  0  0  0  0  0  0  0  0  0  0  0  0
  -33.4332  -17.5488  134.8593 C   0  0  0  0  0  0  0  0  0  0  0  0
  -32.7664  -18.2151  135.8795 C   0  0  0  0  0  0  0  0  0  0  0  0
  -35.0358  -19.3478  134.7589 C   0  0  0  0  0  0  0  0  0  0  0  0
  -34.4035  -19.9850  135.8208 C   0  0  0  0  0  0  0  0  0  0  0  0
  -35.0513  -21.2129  136.4494 C   0  0  1  0  0  0  0  0  0  0  0  0
  -34.8369  -21.2940  137.9631 C   0  0  0  0  0  0  0  0  0  0  0  0
  -36.5245  -21.2183  136.0286 C   0  0  0  0  0  0  0  0  0  0  0  0
  -36.8821  -20.7969  134.9293 O   0  0  0  0  0  0  0  0  0  0  0  0
  -37.3849  -21.6986  136.9548 N   0  0  0  0  0  0  0  0  0  0  0  0
  -38.5416  -22.4414  136.6648 C   0  0  0  0  0  0  0  0  0  0  0  0
  1  2  2  0
  1  3  1  0
  2 19  1  0
  3  4  2  0
  4  5  1  0
  6  5  1  6
  5 19  2  0
  7 11  2  0
  7 13  1  0
  8  9  1  0
  8 10  2  0
  8 12  1  0
 10 11  1  0
 12 13  2  0
 13 14  1  0
 15 14  1  6
 14 16  1  1
 16 17  2  0
 16 18  1  0
 18 19  1  0
M  END
$$$$
