
     RDKit          3D

 19 20  0  0  0  0  0  0  0  0999 V2000
  -15.8813    3.5017  -44.1285 N   0  0  0  0  0  0  0  0  0  0  0  0
  -15.7606    2.1816  -44.3022 C   0  0  0  0  0  0  0  0  0  0  0  0
  -16.9864    3.9424  -43.5159 C   0  0  0  0  0  0  0  0  0  0  0  0
  -17.9817    3.1104  -43.0387 C   0  0  0  0  0  0  0  0  0  0  0  0
  -17.8556    1.7353  -43.1910 C   0  0  0  0  0  0  0  0  0  0  0  0
  -18.8618    0.7992  -42.5721 C   0  0  0  0  0  0  0  0  0  0  0  0
  -18.6913   -1.8975  -40.0551 C   0  0  0  0  0  0  0  0  0  0  0  0
  -16.2123   -3.0180  -39.6549 C   0  0  0  0  0  0  0  0  0  0  0  0
  -14.6641   -3.7851  -39.4477 Cl  0  0  0  0  0  0  0  0  0  0  0  0
  -17.1817   -3.1736  -38.6835 C   0  0  0  0  0  0  0  0  0  0  0  0
  -18.4400   -2.6287  -38.9051 C   0  0  0  0  0  0  0  0  0  0  0  0
  -16.4484   -2.2927  -40.8050 C   0  0  0  0  0  0  0  0  0  0  0  0
  -17.6894   -1.6959  -40.9985 C   0  0  0  0  0  0  0  0  0  0  0  0
  -17.8872   -0.7449  -42.1728 C   0  0  1  0  0  0  0  0  0  0  0  0
  -17.8948    0.7280  -41.7555 C   0  0  0  0  0  0  0  0  0  0  0  0
  -16.8259   -1.0885  -43.2229 C   0  0  0  0  0  0  0  0  0  0  0  0
  -16.2533   -2.1776  -43.2279 O   0  0  0  0  0  0  0  0  0  0  0  0
  -16.5626   -0.1078  -44.1160 N   0  0  0  0  0  0  0  0  0  0  0  0
  -16.7167    1.2661  -43.8658 C   0  0  0  0  0  0  0  0  0  0  0  0
  1  2  2  0
  1  3  1  0
  2 19  1  0
  3  4  2  0
  4  5  1  0
  6  5  1  6
  5 19  2  0
  7 11  2  0
  7 13  1  0
  8  9  1  0
  8 10  2  0
  8 12  1  0
 10 11  1  0
 12 13  2  0
 13 14  1  0
 15 14  1  6
 14 16  1  6
 16 17  2  0
 16 18  1  0
 18 19  1  0
M  END
$$$$
