
     RDKit          3D

 19 20  0  0  0  0  0  0  0  0999 V2000
 2052.5825 1689.2339-1038.9535 N   0  0  0  0  0  0  0  0  0  0  0  0
 2051.3948 1689.3533-1039.5560 C   0  0  0  0  0  0  0  0  0  0  0  0
 2052.5876 1689.1404-1037.6182 C   0  0  0  0  0  0  0  0  0  0  0  0
 2051.4412 1689.1354-1036.8466 C   0  0  0  0  0  0  0  0  0  0  0  0
 2050.2002 1689.2340-1037.4620 C   0  0  0  0  0  0  0  0  0  0  0  0
 2048.9319 1689.1060-1036.6583 C   0  0  0  0  0  0  0  0  0  0  0  0
 2049.1675 1692.7725-1042.6986 C   0  0  0  0  0  0  0  0  0  0  0  0
 2049.9785 1694.7208-1040.9386 C   0  0  0  0  0  0  0  0  0  0  0  0
 2050.4280 1695.9453-1039.7855 Cl  0  0  0  0  0  0  0  0  0  0  0  0
 2049.4570 1695.0989-1042.1592 C   0  0  0  0  0  0  0  0  0  0  0  0
 2049.0222 1694.1091-1043.0316 C   0  0  0  0  0  0  0  0  0  0  0  0
 2050.1289 1693.3931-1040.5923 C   0  0  0  0  0  0  0  0  0  0  0  0
 2049.7507 1692.4021-1041.4918 C   0  0  0  0  0  0  0  0  0  0  0  0
 2050.0881 1690.9473-1041.1876 C   0  0  1  0  0  0  0  0  0  0  0  0
 2051.2961 1690.7952-1040.2599 C   0  0  0  0  0  0  0  0  0  0  0  0
 2048.8123 1690.2827-1040.6613 C   0  0  0  0  0  0  0  0  0  0  0  0
 2047.7273 1690.4340-1041.2240 O   0  0  0  0  0  0  0  0  0  0  0  0
 2048.9690 1689.5448-1039.5394 N   0  0  0  0  0  0  0  0  0  0  0  0
 2050.1865 1689.3696-1038.8602 C   0  0  0  0  0  0  0  0  0  0  0  0
  1  2  2  0
  1  3  1  0
  2 19  1  0
  3  4  2  0
  4  5  1  0
  6  5  1  6
  5 19  2  0
  7 11  2  0
  7 13  1  0
  8  9  1  0
  8 10  2  0
  8 12  1  0
 10 11  1  0
 12 13  2  0
 13 14  1  0
 15 14  1  6
 14 16  1  1
 16 17  2  0
 16 18  1  0
 18 19  1  0
M  END
$$$$
