
     RDKit          3D

 19 20  0  0  0  0  0  0  0  0999 V2000
 -986.9919-4751.1431 -207.4396 N   0  0  0  0  0  0  0  0  0  0  0  0
 -988.9767-4749.9092 -208.1755 C   0  0  0  0  0  0  0  0  0  0  0  0
 -988.2168-4751.0796 -208.1321 C   0  0  0  0  0  0  0  0  0  0  0  0
 -986.3324-4752.2764 -207.1436 C   0  0  0  0  0  0  0  0  0  0  0  0
 -984.8277-4752.1860 -207.2945 C   0  0  0  0  0  0  0  0  0  0  0  0
 -984.4644-4750.8413 -207.8725 C   0  0  0  0  0  0  0  0  0  0  0  0
 -985.0145-4748.5322 -208.3184 C   0  0  0  0  0  0  0  0  0  0  0  0
 -981.7383-4749.3037 -209.9033 C   0  0  0  0  0  0  0  0  0  0  0  0
 -980.7628-4749.1489 -210.4788 N   0  0  0  0  0  0  0  0  0  0  0  0
 -982.9774-4749.4624 -209.1859 C   0  0  0  0  0  0  0  0  0  0  0  0
 -983.8511-4748.3809 -209.0544 C   0  0  0  0  0  0  0  0  0  0  0  0
 -985.3158-4749.7495 -207.7338 C   0  0  0  0  0  0  0  0  0  0  0  0
 -983.2849-4750.6880 -208.6002 C   0  0  0  0  0  0  0  0  0  0  0  0
 -986.8818-4753.2974 -206.7434 O   0  0  0  0  0  0  0  0  0  0  0  0
 -988.6929-4752.2227 -208.7937 C   0  0  0  0  0  0  0  0  0  0  0  0
 -987.9503-4753.5327 -208.7523 C   0  0  0  0  0  0  0  0  0  0  0  0
 -990.1465-4749.8164 -208.8191 N   0  0  0  0  0  0  0  0  0  0  0  0
 -990.5850-4750.9097 -209.4550 C   0  0  0  0  0  0  0  0  0  0  0  0
 -989.9078-4752.1108 -209.4638 C   0  0  0  0  0  0  0  0  0  0  0  0
  1  3  1  0
  1  4  1  0
  2  3  2  0
  2 17  1  0
  3 15  1  0
  5  4  1  6
  4 14  2  0
  5  6  1  0
  6 12  2  0
  6 13  1  0
  7 11  2  0
  7 12  1  0
  8  9  3  0
  8 10  1  0
 10 11  1  0
 10 13  2  0
 16 15  1  6
 15 19  2  0
 17 18  2  0
 18 19  1  0
M  END
$$$$
