
     RDKit          3D

 19 20  0  0  0  0  0  0  0  0999 V2000
    1.3128 -133.9597   72.4164 N   0  0  0  0  0  0  0  0  0  0  0  0
    3.5021 -134.0626   73.5111 C   0  0  0  0  0  0  0  0  0  0  0  0
    2.4884 -134.6563   72.7559 C   0  0  0  0  0  0  0  0  0  0  0  0
    0.1286 -134.0982   73.0380 C   0  0  0  0  0  0  0  0  0  0  0  0
    0.0141 -135.3361   73.9046 C   0  0  0  0  0  0  0  0  0  0  0  0
    1.3916 -135.7531   74.3633 C   0  0  0  0  0  0  0  0  0  0  0  0
    3.0325 -137.4767   74.7678 C   0  0  0  0  0  0  0  0  0  0  0  0
    4.4149 -134.2193   75.9188 C   0  0  0  0  0  0  0  0  0  0  0  0
    5.1277 -133.4190   76.3144 N   0  0  0  0  0  0  0  0  0  0  0  0
    3.5088 -135.2062   75.3903 C   0  0  0  0  0  0  0  0  0  0  0  0
    3.8901 -136.5446   75.3268 C   0  0  0  0  0  0  0  0  0  0  0  0
    1.7937 -137.0818   74.2896 C   0  0  0  0  0  0  0  0  0  0  0  0
    2.2607 -134.8126   74.9113 C   0  0  0  0  0  0  0  0  0  0  0  0
   -0.7824 -133.2801   72.9554 O   0  0  0  0  0  0  0  0  0  0  0  0
    2.6538 -135.9807   72.3231 C   0  0  0  0  0  0  0  0  0  0  0  0
    1.6243 -136.6727   71.4654 C   0  0  0  0  0  0  0  0  0  0  0  0
    4.6340 -134.6937   73.8456 N   0  0  0  0  0  0  0  0  0  0  0  0
    4.7763 -135.9591   73.4362 C   0  0  0  0  0  0  0  0  0  0  0  0
    3.8321 -136.6281   72.6821 C   0  0  0  0  0  0  0  0  0  0  0  0
  1  3  1  0
  1  4  1  0
  2  3  2  0
  2 17  1  0
  3 15  1  0
  5  4  1  6
  4 14  2  0
  5  6  1  0
  6 12  2  0
  6 13  1  0
  7 11  2  0
  7 12  1  0
  8  9  3  0
  8 10  1  0
 10 11  1  0
 10 13  2  0
 16 15  1  6
 15 19  2  0
 17 18  2  0
 18 19  1  0
M  END
$$$$
