
     RDKit          3D

 19 20  0  0  0  0  0  0  0  0999 V2000
   51.4534  -31.8713  -18.5946 N   0  0  0  0  0  0  0  0  0  0  0  0
   53.4284  -31.1344  -17.3462 C   0  0  0  0  0  0  0  0  0  0  0  0
   52.0458  -31.1461  -17.5430 C   0  0  0  0  0  0  0  0  0  0  0  0
   51.2011  -33.1918  -18.5734 C   0  0  0  0  0  0  0  0  0  0  0  0
   50.5204  -33.7222  -19.8191 C   0  0  0  0  0  0  0  0  0  0  0  0
   51.5185  -34.5080  -20.6366 C   0  0  0  0  0  0  0  0  0  0  0  0
   53.7164  -35.4712  -20.8987 C   0  0  0  0  0  0  0  0  0  0  0  0
   51.7930  -36.0154  -24.0374 C   0  0  0  0  0  0  0  0  0  0  0  0
   51.5116  -36.3917  -25.0787 N   0  0  0  0  0  0  0  0  0  0  0  0
   52.1439  -35.5762  -22.7114 C   0  0  0  0  0  0  0  0  0  0  0  0
   53.4076  -35.8509  -22.1939 C   0  0  0  0  0  0  0  0  0  0  0  0
   52.7773  -34.8059  -20.1275 C   0  0  0  0  0  0  0  0  0  0  0  0
   51.2025  -34.9038  -21.9342 C   0  0  0  0  0  0  0  0  0  0  0  0
   51.5236  -33.9309  -17.6483 O   0  0  0  0  0  0  0  0  0  0  0  0
   51.2305  -30.4180  -16.6634 C   0  0  0  0  0  0  0  0  0  0  0  0
   49.7272  -30.4206  -16.7842 C   0  0  0  0  0  0  0  0  0  0  0  0
   54.0229  -30.4615  -16.3537 N   0  0  0  0  0  0  0  0  0  0  0  0
   53.2366  -29.7628  -15.5274 C   0  0  0  0  0  0  0  0  0  0  0  0
   51.8607  -29.7181  -15.6391 C   0  0  0  0  0  0  0  0  0  0  0  0
  1  3  1  0
  1  4  1  0
  2  3  2  0
  2 17  1  0
  3 15  1  0
  5  4  1  6
  4 14  2  0
  5  6  1  0
  6 12  2  0
  6 13  1  0
  7 11  2  0
  7 12  1  0
  8  9  3  0
  8 10  1  0
 10 11  1  0
 10 13  2  0
 16 15  1  6
 15 19  2  0
 17 18  2  0
 18 19  1  0
M  END
$$$$
