
     RDKit          3D

 19 20  0  0  0  0  0  0  0  0999 V2000
  -37.0198  -30.4911   -5.7546 N   0  0  0  0  0  0  0  0  0  0  0  0
  -34.6050  -30.0786   -5.7370 C   0  0  0  0  0  0  0  0  0  0  0  0
  -35.7574  -30.5938   -5.1396 C   0  0  0  0  0  0  0  0  0  0  0  0
  -37.9584  -29.5812   -5.4398 C   0  0  0  0  0  0  0  0  0  0  0  0
  -37.8336  -29.0064   -4.0432 C   0  0  0  0  0  0  0  0  0  0  0  0
  -37.9158  -27.4997   -4.1148 C   0  0  0  0  0  0  0  0  0  0  0  0
  -39.2199  -25.4686   -4.0779 C   0  0  0  0  0  0  0  0  0  0  0  0
  -35.6697  -24.5951   -4.7712 C   0  0  0  0  0  0  0  0  0  0  0  0
  -34.7387  -23.9604   -4.9599 N   0  0  0  0  0  0  0  0  0  0  0  0
  -36.8613  -25.3643   -4.5206 C   0  0  0  0  0  0  0  0  0  0  0  0
  -38.0897  -24.7247   -4.3716 C   0  0  0  0  0  0  0  0  0  0  0  0
  -39.1312  -26.8453   -3.9500 C   0  0  0  0  0  0  0  0  0  0  0  0
  -36.7760  -26.7496   -4.3946 C   0  0  0  0  0  0  0  0  0  0  0  0
  -38.8285  -29.2043   -6.2189 O   0  0  0  0  0  0  0  0  0  0  0  0
  -35.6470  -31.2338   -3.8959 C   0  0  0  0  0  0  0  0  0  0  0  0
  -36.8385  -31.8555   -3.2115 C   0  0  0  0  0  0  0  0  0  0  0  0
  -33.3896  -30.1648   -5.1831 N   0  0  0  0  0  0  0  0  0  0  0  0
  -33.2980  -30.7680   -3.9928 C   0  0  0  0  0  0  0  0  0  0  0  0
  -34.3792  -31.3120   -3.3275 C   0  0  0  0  0  0  0  0  0  0  0  0
  1  3  1  0
  1  4  1  0
  2  3  2  0
  2 17  1  0
  3 15  1  0
  5  4  1  6
  4 14  2  0
  5  6  1  0
  6 12  2  0
  6 13  1  0
  7 11  2  0
  7 12  1  0
  8  9  3  0
  8 10  1  0
 10 11  1  0
 10 13  2  0
 16 15  1  6
 15 19  2  0
 17 18  2  0
 18 19  1  0
M  END
$$$$
