
     RDKit          3D

 19 20  0  0  0  0  0  0  0  0999 V2000
  -59.8308 -177.7462  -32.4309 N   0  0  0  0  0  0  0  0  0  0  0  0
  -59.8823 -175.6938  -31.0941 C   0  0  0  0  0  0  0  0  0  0  0  0
  -59.1819 -176.6467  -31.8369 C   0  0  0  0  0  0  0  0  0  0  0  0
  -59.2289 -178.8935  -32.7907 C   0  0  0  0  0  0  0  0  0  0  0  0
  -57.9455 -179.1921  -32.0423 C   0  0  0  0  0  0  0  0  0  0  0  0
  -56.7650 -178.8716  -32.9287 C   0  0  0  0  0  0  0  0  0  0  0  0
  -54.4989 -178.0844  -33.1963 C   0  0  0  0  0  0  0  0  0  0  0  0
  -55.9387 -178.7434  -36.5637 C   0  0  0  0  0  0  0  0  0  0  0  0
  -56.0077 -178.8398  -37.7001 N   0  0  0  0  0  0  0  0  0  0  0  0
  -55.8165 -178.6088  -35.1350 C   0  0  0  0  0  0  0  0  0  0  0  0
  -54.6238 -178.1591  -34.5732 C   0  0  0  0  0  0  0  0  0  0  0  0
  -55.5622 -178.4391  -32.3821 C   0  0  0  0  0  0  0  0  0  0  0  0
  -56.8855 -178.9619  -34.3134 C   0  0  0  0  0  0  0  0  0  0  0  0
  -59.6861 -179.6685  -33.6253 O   0  0  0  0  0  0  0  0  0  0  0  0
  -57.7960 -176.4965  -31.9958 C   0  0  0  0  0  0  0  0  0  0  0  0
  -56.9801 -177.4587  -32.8221 C   0  0  0  0  0  0  0  0  0  0  0  0
  -59.2979 -174.6342  -30.5221 N   0  0  0  0  0  0  0  0  0  0  0  0
  -57.9749 -174.5068  -30.6717 C   0  0  0  0  0  0  0  0  0  0  0  0
  -57.1992 -175.3942  -31.3916 C   0  0  0  0  0  0  0  0  0  0  0  0
  1  3  1  0
  1  4  1  0
  2  3  2  0
  2 17  1  0
  3 15  1  0
  5  4  1  6
  4 14  2  0
  5  6  1  0
  6 12  2  0
  6 13  1  0
  7 11  2  0
  7 12  1  0
  8  9  3  0
  8 10  1  0
 10 11  1  0
 10 13  2  0
 16 15  1  6
 15 19  2  0
 17 18  2  0
 18 19  1  0
M  END
$$$$
