
     RDKit          3D

 19 20  0  0  0  0  0  0  0  0999 V2000
-1466.2577 2140.0942 3094.4441 N   0  0  0  0  0  0  0  0  0  0  0  0
-1467.2266 2138.0000 3093.6201 C   0  0  0  0  0  0  0  0  0  0  0  0
-1467.0459 2139.3823 3093.5198 C   0  0  0  0  0  0  0  0  0  0  0  0
-1466.5890 2140.3203 3095.7268 C   0  0  0  0  0  0  0  0  0  0  0  0
-1468.0801 2140.3271 3095.9995 C   0  0  0  0  0  0  0  0  0  0  0  0
-1468.3745 2139.4424 3097.1868 C   0  0  0  0  0  0  0  0  0  0  0  0
-1469.4625 2139.0781 3099.3108 C   0  0  0  0  0  0  0  0  0  0  0  0
-1467.3408 2136.1213 3098.5332 C   0  0  0  0  0  0  0  0  0  0  0  0
-1466.8494 2135.0962 3098.6421 N   0  0  0  0  0  0  0  0  0  0  0  0
-1467.9692 2137.4153 3098.4331 C   0  0  0  0  0  0  0  0  0  0  0  0
-1468.8226 2137.8589 3099.4409 C   0  0  0  0  0  0  0  0  0  0  0  0
-1469.2385 2139.8613 3098.1912 C   0  0  0  0  0  0  0  0  0  0  0  0
-1467.7446 2138.2068 3097.3103 C   0  0  0  0  0  0  0  0  0  0  0  0
-1465.7668 2140.4705 3096.6255 O   0  0  0  0  0  0  0  0  0  0  0  0
-1467.6648 2140.0718 3092.4661 C   0  0  0  0  0  0  0  0  0  0  0  0
-1467.4796 2141.5547 3092.2661 C   0  0  0  0  0  0  0  0  0  0  0  0
-1467.9634 2137.2913 3092.7571 N   0  0  0  0  0  0  0  0  0  0  0  0
-1468.5574 2137.9614 3091.7617 C   0  0  0  0  0  0  0  0  0  0  0  0
-1468.4337 2139.3247 3091.5801 C   0  0  0  0  0  0  0  0  0  0  0  0
  1  3  1  0
  1  4  1  0
  2  3  2  0
  2 17  1  0
  3 15  1  0
  5  4  1  6
  4 14  2  0
  5  6  1  0
  6 12  2  0
  6 13  1  0
  7 11  2  0
  7 12  1  0
  8  9  3  0
  8 10  1  0
 10 11  1  0
 10 13  2  0
 16 15  1  6
 15 19  2  0
 17 18  2  0
 18 19  1  0
M  END
$$$$
