
     RDKit          3D

 19 20  0  0  0  0  0  0  0  0999 V2000
  -56.6573  -95.2944   72.0625 N   0  0  0  0  0  0  0  0  0  0  0  0
  -54.3041  -95.2294   71.3845 C   0  0  0  0  0  0  0  0  0  0  0  0
  -55.4899  -94.5794   71.7332 C   0  0  0  0  0  0  0  0  0  0  0  0
  -57.8423  -95.1631   71.4409 C   0  0  0  0  0  0  0  0  0  0  0  0
  -58.8790  -96.1944   71.8387 C   0  0  0  0  0  0  0  0  0  0  0  0
  -58.6665  -97.4528   71.0304 C   0  0  0  0  0  0  0  0  0  0  0  0
  -58.5606  -99.8604   70.8912 C   0  0  0  0  0  0  0  0  0  0  0  0
  -57.6443  -98.4321   67.5796 C   0  0  0  0  0  0  0  0  0  0  0  0
  -57.3447  -98.3259   66.4821 N   0  0  0  0  0  0  0  0  0  0  0  0
  -58.0153  -98.5289   68.9679 C   0  0  0  0  0  0  0  0  0  0  0  0
  -58.1516  -99.7771   69.5711 C   0  0  0  0  0  0  0  0  0  0  0  0
  -58.8164  -98.7059   71.6132 C   0  0  0  0  0  0  0  0  0  0  0  0
  -58.2701  -97.3694   69.6977 C   0  0  0  0  0  0  0  0  0  0  0  0
  -58.0963  -94.2649   70.6440 O   0  0  0  0  0  0  0  0  0  0  0  0
  -55.5109  -93.1767   71.7589 C   0  0  0  0  0  0  0  0  0  0  0  0
  -56.7402  -92.4060   72.1705 C   0  0  0  0  0  0  0  0  0  0  0  0
  -53.1757  -94.5806   71.0724 N   0  0  0  0  0  0  0  0  0  0  0  0
  -53.2104  -93.2436   71.0904 C   0  0  0  0  0  0  0  0  0  0  0  0
  -54.3335  -92.5136   71.4270 C   0  0  0  0  0  0  0  0  0  0  0  0
  1  3  1  0
  1  4  1  0
  2  3  2  0
  2 17  1  0
  3 15  1  0
  5  4  1  6
  4 14  2  0
  5  6  1  0
  6 12  2  0
  6 13  1  0
  7 11  2  0
  7 12  1  0
  8  9  3  0
  8 10  1  0
 10 11  1  0
 10 13  2  0
 16 15  1  6
 15 19  2  0
 17 18  2  0
 18 19  1  0
M  END
$$$$
