
     RDKit          3D

 19 20  0  0  0  0  0  0  0  0999 V2000
  -41.7936   52.4943   65.2032 N   0  0  0  0  0  0  0  0  0  0  0  0
  -39.5663   51.9719   64.3267 C   0  0  0  0  0  0  0  0  0  0  0  0
  -40.5252   51.8983   65.3393 C   0  0  0  0  0  0  0  0  0  0  0  0
  -42.9427   51.9756   65.6703 C   0  0  0  0  0  0  0  0  0  0  0  0
  -44.1935   52.5276   65.0168 C   0  0  0  0  0  0  0  0  0  0  0  0
  -43.8444   53.7828   64.2521 C   0  0  0  0  0  0  0  0  0  0  0  0
  -43.8969   55.0784   62.2160 C   0  0  0  0  0  0  0  0  0  0  0  0
  -41.8873   56.9188   64.7500 C   0  0  0  0  0  0  0  0  0  0  0  0
  -41.2436   57.7331   65.2274 N   0  0  0  0  0  0  0  0  0  0  0  0
  -42.6764   55.8934   64.1176 C   0  0  0  0  0  0  0  0  0  0  0  0
  -43.0939   56.0450   62.7974 C   0  0  0  0  0  0  0  0  0  0  0  0
  -44.2689   53.9572   62.9399 C   0  0  0  0  0  0  0  0  0  0  0  0
  -43.0495   54.7627   64.8421 C   0  0  0  0  0  0  0  0  0  0  0  0
  -42.9940   51.0977   66.5264 O   0  0  0  0  0  0  0  0  0  0  0  0
  -40.2121   51.2066   66.5192 C   0  0  0  0  0  0  0  0  0  0  0  0
  -41.2118   51.0449   67.6368 C   0  0  0  0  0  0  0  0  0  0  0  0
  -38.3545   51.4115   64.4210 N   0  0  0  0  0  0  0  0  0  0  0  0
  -38.0635   50.7633   65.5543 C   0  0  0  0  0  0  0  0  0  0  0  0
  -38.9473   50.6333   66.6077 C   0  0  0  0  0  0  0  0  0  0  0  0
  1  3  1  0
  1  4  1  0
  2  3  2  0
  2 17  1  0
  3 15  1  0
  5  4  1  6
  4 14  2  0
  5  6  1  0
  6 12  2  0
  6 13  1  0
  7 11  2  0
  7 12  1  0
  8  9  3  0
  8 10  1  0
 10 11  1  0
 10 13  2  0
 16 15  1  6
 15 19  2  0
 17 18  2  0
 18 19  1  0
M  END
$$$$
