
     RDKit          3D

 19 20  0  0  0  0  0  0  0  0999 V2000
  -60.1474   40.1415    8.5842 N   0  0  0  0  0  0  0  0  0  0  0  0
  -60.0646   42.5754    8.8509 C   0  0  0  0  0  0  0  0  0  0  0  0
  -59.4759   41.3724    8.4554 C   0  0  0  0  0  0  0  0  0  0  0  0
  -60.5069   39.5785    9.7511 C   0  0  0  0  0  0  0  0  0  0  0  0
  -59.4414   39.6273   10.8276 C   0  0  0  0  0  0  0  0  0  0  0  0
  -58.0880   39.8098   10.1819 C   0  0  0  0  0  0  0  0  0  0  0  0
  -55.7504   39.2306   10.0167 C   0  0  0  0  0  0  0  0  0  0  0  0
  -56.4578   42.0218    7.6596 C   0  0  0  0  0  0  0  0  0  0  0  0
  -56.3467   42.8253    6.8550 N   0  0  0  0  0  0  0  0  0  0  0  0
  -56.6351   41.0154    8.6745 C   0  0  0  0  0  0  0  0  0  0  0  0
  -55.5575   40.2311    9.0792 C   0  0  0  0  0  0  0  0  0  0  0  0
  -57.0069   39.0227   10.5619 C   0  0  0  0  0  0  0  0  0  0  0  0
  -57.8973   40.8060    9.2272 C   0  0  0  0  0  0  0  0  0  0  0  0
  -61.6156   39.0956    9.9601 O   0  0  0  0  0  0  0  0  0  0  0  0
  -58.1827   41.3980    7.9117 C   0  0  0  0  0  0  0  0  0  0  0  0
  -57.5007   40.1462    7.4195 C   0  0  0  0  0  0  0  0  0  0  0  0
  -59.4571   43.7626    8.7365 N   0  0  0  0  0  0  0  0  0  0  0  0
  -58.2208   43.7737    8.2262 C   0  0  0  0  0  0  0  0  0  0  0  0
  -57.5594   42.6374    7.8032 C   0  0  0  0  0  0  0  0  0  0  0  0
  1  3  1  0
  1  4  1  0
  2  3  2  0
  2 17  1  0
  3 15  1  0
  5  4  1  6
  4 14  2  0
  5  6  1  0
  6 12  2  0
  6 13  1  0
  7 11  2  0
  7 12  1  0
  8  9  3  0
  8 10  1  0
 10 11  1  0
 10 13  2  0
 16 15  1  6
 15 19  2  0
 17 18  2  0
 18 19  1  0
M  END
$$$$
