
     RDKit          3D

 19 20  0  0  0  0  0  0  0  0999 V2000
  -44.0272 -116.9581  181.8258 N   0  0  0  0  0  0  0  0  0  0  0  0
  -43.8527 -118.0195  184.0269 C   0  0  0  0  0  0  0  0  0  0  0  0
  -43.5758 -116.9606  183.1595 C   0  0  0  0  0  0  0  0  0  0  0  0
  -44.9921 -117.7571  181.3376 C   0  0  0  0  0  0  0  0  0  0  0  0
  -45.2211 -119.0258  182.1342 C   0  0  0  0  0  0  0  0  0  0  0  0
  -45.7855 -120.0912  181.2241 C   0  0  0  0  0  0  0  0  0  0  0  0
  -46.9867 -120.7190  179.2265 C   0  0  0  0  0  0  0  0  0  0  0  0
  -46.1931 -123.7982  181.1592 C   0  0  0  0  0  0  0  0  0  0  0  0
  -46.1370 -124.9037  181.4422 N   0  0  0  0  0  0  0  0  0  0  0  0
  -46.2971 -122.4112  180.7855 C   0  0  0  0  0  0  0  0  0  0  0  0
  -46.9391 -122.0504  179.6031 C   0  0  0  0  0  0  0  0  0  0  0  0
  -46.4129 -119.7485  180.0317 C   0  0  0  0  0  0  0  0  0  0  0  0
  -45.7238 -121.4324  181.5951 C   0  0  0  0  0  0  0  0  0  0  0  0
  -45.6702 -117.4808  180.3527 O   0  0  0  0  0  0  0  0  0  0  0  0
  -42.8316 -115.8712  183.6370 C   0  0  0  0  0  0  0  0  0  0  0  0
  -42.5331 -114.6710  182.7738 C   0  0  0  0  0  0  0  0  0  0  0  0
  -43.4446 -118.0507  185.3012 N   0  0  0  0  0  0  0  0  0  0  0  0
  -42.7274 -117.0115  185.7425 C   0  0  0  0  0  0  0  0  0  0  0  0
  -42.4081 -115.9178  184.9616 C   0  0  0  0  0  0  0  0  0  0  0  0
  1  3  1  0
  1  4  1  0
  2  3  2  0
  2 17  1  0
  3 15  1  0
  5  4  1  6
  4 14  2  0
  5  6  1  0
  6 12  2  0
  6 13  1  0
  7 11  2  0
  7 12  1  0
  8  9  3  0
  8 10  1  0
 10 11  1  0
 10 13  2  0
 16 15  1  6
 15 19  2  0
 17 18  2  0
 18 19  1  0
M  END
$$$$
