
     RDKit          3D

 19 20  0  0  0  0  0  0  0  0999 V2000
   74.0693    3.4160   14.0694 N   0  0  0  0  0  0  0  0  0  0  0  0
   71.6566    3.0379   13.8758 C   0  0  0  0  0  0  0  0  0  0  0  0
   72.9682    2.5583   13.8837 C   0  0  0  0  0  0  0  0  0  0  0  0
   74.5698    4.2408   13.1329 C   0  0  0  0  0  0  0  0  0  0  0  0
   75.8302    4.9726   13.5478 C   0  0  0  0  0  0  0  0  0  0  0  0
   75.9263    4.9852   15.0554 C   0  0  0  0  0  0  0  0  0  0  0  0
   77.2171    5.3064   17.0697 C   0  0  0  0  0  0  0  0  0  0  0  0
   73.8073    4.1498   18.0091 C   0  0  0  0  0  0  0  0  0  0  0  0
   72.8884    3.8706   18.6279 N   0  0  0  0  0  0  0  0  0  0  0  0
   74.9478    4.5331   17.2175 C   0  0  0  0  0  0  0  0  0  0  0  0
   76.1435    4.8882   17.8375 C   0  0  0  0  0  0  0  0  0  0  0  0
   77.1069    5.3547   15.6896 C   0  0  0  0  0  0  0  0  0  0  0  0
   74.8411    4.5795   15.8286 C   0  0  0  0  0  0  0  0  0  0  0  0
   74.0836    4.3738   12.0139 O   0  0  0  0  0  0  0  0  0  0  0  0
   73.1877    1.1840   13.7063 C   0  0  0  0  0  0  0  0  0  0  0  0
   74.5717    0.5864   13.7495 C   0  0  0  0  0  0  0  0  0  0  0  0
   70.5878    2.2497   13.7085 N   0  0  0  0  0  0  0  0  0  0  0  0
   70.8097    0.9428   13.5302 C   0  0  0  0  0  0  0  0  0  0  0  0
   72.0691    0.3759   13.5276 C   0  0  0  0  0  0  0  0  0  0  0  0
  1  3  1  0
  1  4  1  0
  2  3  2  0
  2 17  1  0
  3 15  1  0
  5  4  1  6
  4 14  2  0
  5  6  1  0
  6 12  2  0
  6 13  1  0
  7 11  2  0
  7 12  1  0
  8  9  3  0
  8 10  1  0
 10 11  1  0
 10 13  2  0
 16 15  1  6
 15 19  2  0
 17 18  2  0
 18 19  1  0
M  END
$$$$
