
     RDKit          3D

 19 20  0  0  0  0  0  0  0  0999 V2000
  -10.1498 -154.1575  122.9487 N   0  0  0  0  0  0  0  0  0  0  0  0
  -10.3531 -152.2652  124.4916 C   0  0  0  0  0  0  0  0  0  0  0  0
   -9.8003 -153.4997  124.1437 C   0  0  0  0  0  0  0  0  0  0  0  0
  -10.4952 -153.5430  121.8037 C   0  0  0  0  0  0  0  0  0  0  0  0
   -9.5319 -152.4629  121.3542 C   0  0  0  0  0  0  0  0  0  0  0  0
   -9.7125 -151.2405  122.2232 C   0  0  0  0  0  0  0  0  0  0  0  0
   -9.8358 -150.2235  124.4090 C   0  0  0  0  0  0  0  0  0  0  0  0
  -10.5511 -147.6260  121.8422 C   0  0  0  0  0  0  0  0  0  0  0  0
  -10.7545 -146.6153  121.3497 N   0  0  0  0  0  0  0  0  0  0  0  0
  -10.2590 -148.8982  122.4509 C   0  0  0  0  0  0  0  0  0  0  0  0
  -10.1698 -149.0078  123.8366 C   0  0  0  0  0  0  0  0  0  0  0  0
   -9.6085 -151.3297  123.6066 C   0  0  0  0  0  0  0  0  0  0  0  0
  -10.0330 -150.0137  121.6465 C   0  0  0  0  0  0  0  0  0  0  0  0
  -11.4833 -153.8447  121.1414 O   0  0  0  0  0  0  0  0  0  0  0  0
   -8.8691 -154.0926  125.0096 C   0  0  0  0  0  0  0  0  0  0  0  0
   -8.1952 -155.4008  124.6795 C   0  0  0  0  0  0  0  0  0  0  0  0
  -10.0383 -151.6105  125.6157 N   0  0  0  0  0  0  0  0  0  0  0  0
   -9.1571 -152.1901  126.4383 C   0  0  0  0  0  0  0  0  0  0  0  0
   -8.5543 -153.4051  126.1776 C   0  0  0  0  0  0  0  0  0  0  0  0
  1  3  1  0
  1  4  1  0
  2  3  2  0
  2 17  1  0
  3 15  1  0
  5  4  1  6
  4 14  2  0
  5  6  1  0
  6 12  2  0
  6 13  1  0
  7 11  2  0
  7 12  1  0
  8  9  3  0
  8 10  1  0
 10 11  1  0
 10 13  2  0
 16 15  1  6
 15 19  2  0
 17 18  2  0
 18 19  1  0
M  END
$$$$
