
     RDKit          3D

 19 20  0  0  0  0  0  0  0  0999 V2000
  -31.2355  -52.9003   15.9216 N   0  0  0  0  0  0  0  0  0  0  0  0
  -33.0666  -52.5725   17.5159 C   0  0  0  0  0  0  0  0  0  0  0  0
  -31.8512  -53.1617   17.1607 C   0  0  0  0  0  0  0  0  0  0  0  0
  -31.6224  -51.9481   15.0548 C   0  0  0  0  0  0  0  0  0  0  0  0
  -30.6520  -51.7011   13.9174 C   0  0  0  0  0  0  0  0  0  0  0  0
  -29.8294  -52.9464   13.6842 C   0  0  0  0  0  0  0  0  0  0  0  0
  -29.1681  -54.7856   12.2674 C   0  0  0  0  0  0  0  0  0  0  0  0
  -27.5063  -55.1695   15.5746 C   0  0  0  0  0  0  0  0  0  0  0  0
  -26.8662  -55.5993   16.4176 N   0  0  0  0  0  0  0  0  0  0  0  0
  -28.3388  -54.6552   14.5179 C   0  0  0  0  0  0  0  0  0  0  0  0
  -28.4069  -55.3174   13.2944 C   0  0  0  0  0  0  0  0  0  0  0  0
  -29.8724  -53.6086   12.4626 C   0  0  0  0  0  0  0  0  0  0  0  0
  -29.0511  -53.4731   14.7123 C   0  0  0  0  0  0  0  0  0  0  0  0
  -32.6884  -51.3455   15.1377 O   0  0  0  0  0  0  0  0  0  0  0  0
  -31.2299  -54.0324   18.0686 C   0  0  0  0  0  0  0  0  0  0  0  0
  -29.8948  -54.6693   17.7750 C   0  0  0  0  0  0  0  0  0  0  0  0
  -33.6752  -52.7942   18.6871 N   0  0  0  0  0  0  0  0  0  0  0  0
  -33.0788  -53.6338   19.5407 C   0  0  0  0  0  0  0  0  0  0  0  0
  -31.8752  -54.2593   19.2804 C   0  0  0  0  0  0  0  0  0  0  0  0
  1  3  1  0
  1  4  1  0
  2  3  2  0
  2 17  1  0
  3 15  1  0
  5  4  1  6
  4 14  2  0
  5  6  1  0
  6 12  2  0
  6 13  1  0
  7 11  2  0
  7 12  1  0
  8  9  3  0
  8 10  1  0
 10 11  1  0
 10 13  2  0
 16 15  1  6
 15 19  2  0
 17 18  2  0
 18 19  1  0
M  END
$$$$
